data/public_benchmarks/arpae_go/extracted/Challenge_1_Original_Dataset_2_Scenarios/Original_Dataset_Real-Time_Edition_2/Network_05R-010/scenario_4/case.raw
 0,    100, 33, 0, 0, 60.0 / Header line 1
Header line 2
Header line 3
  1001,'',   115, 1, 1, 1, 1, 0.98746669, -49.02299, 1.1, 0.9, 1.1, 0.9
  1002,'',   115, 1, 1, 1, 1, 1.0274974, -47.921182, 1.1, 0.9, 1.1, 0.9
  1003,'',   115, 1, 1, 1, 1, 1.0169999, -48.227455, 1.1, 0.9, 1.1, 0.9
  1004,'',   230, 2, 1, 1, 1, 1.0215999, -50.293842, 1.1, 0.9, 1.1, 0.9
  1005,'',   115, 1, 1, 1, 1, 1.0044233, -46.219651, 1.1, 0.9, 1.1, 0.9
  1006,'',  13.8, 2, 1, 1, 1, 1, -44.537807, 1.1, 0.9, 1.1, 0.9
  1007,'',   115, 1, 1, 1, 1, 1.0320574, -47.464414, 1.1, 0.9, 1.1, 0.9
  1008,'',   115, 1, 1, 1, 1, 1.0164911, -38.707462, 1.1, 0.9, 1.1, 0.9
  1009,'',  13.8, 2, 1, 1, 1, 1.0064136, -36.491212, 1.1, 0.9, 1.1, 0.9
  1010,'',   115, 1, 1, 1, 1, 1.0327639, -47.012105, 1.1, 0.9, 1.1, 0.9
  1011,'',    22, 2, 1, 1, 1, 1.0327639, -47.012105, 1.1, 0.9, 1.1, 0.9
  1012,'',   115, 1, 1, 1, 1, 1.015, -50.495627, 1.1, 0.9, 1.1, 0.9
  1013,'',   115, 1, 1, 1, 1, 1.0064855, -42.824491, 1.1, 0.9, 1.1, 0.9
  1014,'',   115, 1, 1, 1, 1, 1.0105926, -40.289725, 1.1, 0.9, 1.1, 0.9
  1015,'',   115, 1, 1, 1, 1, 1.035066, -47.832254, 1.1, 0.9, 1.1, 0.9
  1016,'',   115, 1, 1, 1, 1, 1.015, -46.290712, 1.1, 0.9, 1.1, 0.9
  1017,'',   115, 1, 1, 1, 1, 0.98737768, -48.403637, 1.1, 0.9, 1.1, 0.9
  1018,'',   115, 1, 1, 1, 1, 0.9948762, -47.62902, 1.1, 0.9, 1.1, 0.9
  1019,'',   115, 1, 1, 1, 1, 1.0056195, -48.898818, 1.1, 0.9, 1.1, 0.9
  1020,'',   115, 1, 1, 1, 1, 1.015, -45.506431, 1.1, 0.9, 1.1, 0.9
  1021,'',  13.8, 2, 1, 1, 1, 1, -42.151202, 1.1, 0.9, 1.1, 0.9
  1022,'',   115, 1, 1, 1, 1, 1.0202813, -47.438951, 1.1, 0.9, 1.1, 0.9
  1023,'',  13.8, 2, 1, 1, 1, 1.01, -40.786546, 1.1, 0.9, 1.1, 0.9
  1024,'',   115, 1, 1, 1, 1, 0.99780671, -46.960893, 1.1, 0.9, 1.1, 0.9
  1025,'',   115, 1, 1, 1, 1, 1.0125986, -44.80632, 1.1, 0.9, 1.1, 0.9
  1026,'',  13.8, 2, 1, 1, 1, 1, -38.1943, 1.1, 0.9, 1.1, 0.9
  1027,'',   115, 1, 1, 1, 1, 1, -53.247713, 1.1, 0.9, 1.1, 0.9
  1028,'',   115, 1, 1, 1, 1, 1.0262052, -48.263967, 1.1, 0.9, 1.1, 0.9
  1029,'',   115, 1, 1, 1, 1, 1.0040657, -52.517157, 1.1, 0.9, 1.1, 0.9
  1030,'',   115, 1, 1, 1, 1, 1.0157784, -43.256403, 1.1, 0.9, 1.1, 0.9
  1031,'',   115, 1, 1, 1, 1, 1.0187929, -45.803414, 1.1, 0.9, 1.1, 0.9
  1032,'',   115, 1, 1, 1, 1, 0.99904054, -40.787519, 1.1, 0.9, 1.1, 0.9
  1033,'',   230, 2, 1, 1, 1, 1.000046, -43.342115, 1.1, 0.9, 1.1, 0.9
  1034,'',   115, 1, 1, 1, 1, 1.0030975, -45.601326, 1.1, 0.9, 1.1, 0.9
  1035,'',  13.8, 2, 1, 1, 1, 1, -43.584078, 1.1, 0.9, 1.1, 0.9
  1036,'',   115, 1, 1, 1, 1, 0.99718499, -41.757364, 1.1, 0.9, 1.1, 0.9
  1037,'',   115, 1, 1, 1, 1, 0.98229409, -49.120662, 1.1, 0.9, 1.1, 0.9
  1038,'',   115, 1, 1, 1, 1, 1.0134522, -37.745026, 1.1, 0.9, 1.1, 0.9
  1039,'',    22, 2, 1, 1, 1, 1, -33.941762, 1.1, 0.9, 1.1, 0.9
  1040,'',   115, 1, 1, 1, 1, 0.99898044, -47.9171, 1.1, 0.9, 1.1, 0.9
  1041,'',   115, 1, 1, 1, 1, 1.0005643, -46.014429, 1.1, 0.9, 1.1, 0.9
  1042,'',  13.8, 2, 1, 1, 1, 1.0005643, -46.014429, 1.1, 0.9, 1.1, 0.9
  1043,'',  13.8, 2, 1, 1, 1, 1, -43.173607, 1.1, 0.9, 1.1, 0.9
  1044,'',   115, 1, 1, 1, 1, 1.0060432, -52.623595, 1.1, 0.9, 1.1, 0.9
  1045,'',   115, 1, 1, 1, 1, 0.98381492, -50.91383, 1.1, 0.9, 1.1, 0.9
  1046,'',   115, 1, 1, 1, 1, 1.015, -49.078938, 1.1, 0.9, 1.1, 0.9
  1047,'',   115, 1, 1, 1, 1, 1.0045983, -40.694766, 1.1, 0.9, 1.1, 0.9
  1048,'',    18, 2, 1, 1, 1, 1.0045983, -40.694766, 1.1, 0.9, 1.1, 0.9
  1049,'',    18, 2, 1, 1, 1, 1.0045983, -40.694766, 1.1, 0.9, 1.1, 0.9
  1050,'',    18, 2, 1, 1, 1, 1, -35.6132, 1.1, 0.9, 1.1, 0.9
  1051,'',    18, 2, 1, 1, 1, 1, -34.131144, 1.1, 0.9, 1.1, 0.9
  1052,'',    18, 2, 1, 1, 1, 1, -36.466227, 1.1, 0.9, 1.1, 0.9
  1053,'',   230, 2, 1, 1, 1, 1.0063988, -44.094431, 1.1, 0.9, 1.1, 0.9
  1054,'',   115, 1, 1, 1, 1, 1.0039229, -51.324859, 1.1, 0.9, 1.1, 0.9
  1055,'',   115, 1, 1, 1, 1, 1.0095628, -49.004855, 1.1, 0.9, 1.1, 0.9
  1056,'',   115, 1, 1, 1, 1, 1.015, -50.551304, 1.1, 0.9, 1.1, 0.9
  1057,'',    18, 2, 1, 1, 1, 1.015, -50.551304, 1.1, 0.9, 1.1, 0.9
  1058,'',   115, 1, 1, 1, 1, 1.0193719, -40.728508, 1.1, 0.9, 1.1, 0.9
  1059,'',    22, 2, 1, 1, 1, 1.0193719, -40.728508, 1.1, 0.9, 1.1, 0.9
  1060,'',    22, 2, 1, 1, 1, 1.0193719, -40.728508, 1.1, 0.9, 1.1, 0.9
  1061,'',   115, 1, 1, 1, 1, 1.0051268, -46.779507, 1.1, 0.9, 1.1, 0.9
  1062,'',  13.8, 2, 1, 1, 1, 1.0051268, -46.779507, 1.1, 0.9, 1.1, 0.9
  1063,'',  13.8, 2, 1, 1, 1, 1.0051268, -46.779507, 1.1, 0.9, 1.1, 0.9
  1064,'',   115, 1, 1, 1, 1, 0.98023593, -50.400651, 1.1, 0.9, 1.1, 0.9
  1065,'',   115, 1, 1, 1, 1, 1.0030892, -45.947347, 1.1, 0.9, 1.1, 0.9
  1066,'',  13.8, 2, 1, 1, 1, 1, -41.193598, 1.1, 0.9, 1.1, 0.9
  1067,'',   115, 1, 1, 1, 1, 0.99738471, -46.44751, 1.1, 0.9, 1.1, 0.9
  1068,'',   115, 1, 1, 1, 1, 0.98774991, -46.616104, 1.1, 0.9, 1.1, 0.9
  1069,'',   115, 1, 1, 1, 1, 1.0213731, -38.908151, 1.1, 0.9, 1.1, 0.9
  1070,'',  13.8, 2, 1, 1, 1, 1.04, -36.170265, 1.1, 0.9, 1.1, 0.9
  1071,'',   115, 1, 1, 1, 1, 0.99475485, -47.811434, 1.1, 0.9, 1.1, 0.9
  1072,'',    18, 2, 1, 1, 1, 1.01, -39.733432, 1.1, 0.9, 1.1, 0.9
  1073,'',    18, 2, 1, 1, 1, 1.01, -34.236579, 1.1, 0.9, 1.1, 0.9
  1074,'',    18, 2, 1, 1, 1, 1.01, -35.988845, 1.1, 0.9, 1.1, 0.9
  1075,'',    18, 2, 1, 1, 1, 1.01, -38.364745, 1.1, 0.9, 1.1, 0.9
  1076,'',    18, 2, 1, 1, 1, 0.99475485, -47.811434, 1.1, 0.9, 1.1, 0.9
  1077,'',    18, 2, 1, 1, 1, 0.99475485, -47.811434, 1.1, 0.9, 1.1, 0.9
  1078,'',    18, 2, 1, 1, 1, 1.01, -37.401969, 1.1, 0.9, 1.1, 0.9
  1079,'',   500, 2, 1, 1, 1, 1.0263944, -60.988909, 1.1, 0.9, 1.1, 0.9
  1080,'',    18, 2, 1, 1, 1, 1.01, -36.814481, 1.1, 0.9, 1.1, 0.9
  1081,'',   230, 2, 1, 1, 1, 1.0054181, -45.252993, 1.1, 0.9, 1.1, 0.9
  1082,'',   115, 2, 1, 1, 1, 1.0162749, -36.225396, 1.1, 0.9, 1.1, 0.9
  1083,'',   115, 1, 1, 1, 1, 1.015, -39.536735, 1.1, 0.9, 1.1, 0.9
  1084,'',   115, 2, 1, 1, 1, 1.0202113, -46.282864, 1.1, 0.9, 1.1, 0.9
  1085,'',   115, 1, 1, 1, 1, 1.0086568, -42.86139, 1.1, 0.9, 1.1, 0.9
  1086,'',   115, 1, 1, 1, 1, 1.015, -44.837316, 1.1, 0.9, 1.1, 0.9
  1087,'',   115, 1, 1, 1, 1, 1.0194446, -44.242459, 1.1, 0.9, 1.1, 0.9
  1088,'',   115, 2, 1, 1, 1, 1, -41.920423, 1.1, 0.9, 1.1, 0.9
  1089,'',   115, 1, 1, 1, 1, 0.98876096, -51.329479, 1.1, 0.9, 1.1, 0.9
  1090,'',   115, 2, 1, 1, 1, 1.02, -44.440342, 1.1, 0.9, 1.1, 0.9
  1091,'',   161, 1, 1, 1, 1, 1.0438948, -58.673058, 1.1, 0.9, 1.1, 0.9
  2001,'',   161, 1, 1, 1, 1, 1.0071156, -79.896515, 1.1, 0.9, 1.1, 0.9
  2002,'',   500, 1, 1, 1, 1, 1.0139099, -81.320098, 1.1, 0.9, 1.1, 0.9
  2003,'',   161, 1, 1, 1, 1, 1.0103171, -83.322462, 1.1, 0.9, 1.1, 0.9
  2004,'',  13.8, 2, 1, 1, 1, 1.0139099, -81.320098, 1.1, 0.9, 1.1, 0.9
  2005,'',  13.8, 2, 1, 1, 1, 1.0139099, -81.320098, 1.1, 0.9, 1.1, 0.9
  2006,'',  13.8, 2, 1, 1, 1, 1.0139099, -81.320098, 1.1, 0.9, 1.1, 0.9
  2007,'',   161, 1, 1, 1, 1, 1.0074177, -79.703614, 1.1, 0.9, 1.1, 0.9
  2008,'',   161, 1, 1, 1, 1, 1.0381593, -61.662828, 1.1, 0.9, 1.1, 0.9
  2009,'',   161, 1, 1, 1, 1, 1, -67.705504, 1.1, 0.9, 1.1, 0.9
  2010,'',   161, 1, 1, 1, 1, 1.0118219, -60.267145, 1.1, 0.9, 1.1, 0.9
  2011,'',   500, 1, 1, 1, 1, 1.0528989, -60.539916, 1.1, 0.9, 1.1, 0.9
  2012,'',   161, 1, 1, 1, 1, 1.0453517, -59.769987, 1.1, 0.9, 1.1, 0.9
  2013,'',    18, 2, 1, 1, 1, 1.0448893, -58.846429, 1.1, 0.9, 1.1, 0.9
  2014,'',   161, 1, 1, 1, 1, 1.036882, -61.760993, 1.1, 0.9, 1.1, 0.9
  2015,'',   161, 1, 1, 1, 1, 0.99805532, -83.080778, 1.1, 0.9, 1.1, 0.9
  2016,'',   161, 1, 1, 1, 1, 1.0017633, -88.754811, 1.1, 0.9, 1.1, 0.9
  2017,'',   500, 1, 1, 1, 1, 1.04896, -60.485423, 1.1, 0.9, 1.1, 0.9
  2018,'',   161, 1, 1, 1, 1, 1.0478935, -60.258714, 1.1, 0.9, 1.1, 0.9
  2019,'',    20, 2, 1, 1, 1, 1.04896, -60.485423, 1.1, 0.9, 1.1, 0.9
  2020,'',   161, 1, 1, 1, 1, 1.0020193, -67.811967, 1.1, 0.9, 1.1, 0.9
  2021,'',   500, 1, 1, 1, 1, 1.0170016, -76.972794, 1.1, 0.9, 1.1, 0.9
  2022,'',   161, 1, 1, 1, 1, 1.0141179, -78.697506, 1.1, 0.9, 1.1, 0.9
  2023,'',  13.8, 2, 1, 1, 1, 1.02, -75.407581, 1.1, 0.9, 1.1, 0.9
  2024,'',  13.8, 2, 1, 1, 1, 1.02, -74.742502, 1.1, 0.9, 1.1, 0.9
  2025,'',   161, 1, 1, 1, 1, 1.0022815, -67.120676, 1.1, 0.9, 1.1, 0.9
  2026,'',   161, 1, 1, 1, 1, 1.0435044, -60.692233, 1.1, 0.9, 1.1, 0.9
  2027,'',   161, 1, 1, 1, 1, 1.0077837, -80.283886, 1.1, 0.9, 1.1, 0.9
  2028,'',   161, 1, 1, 1, 1, 0.99582606, -69.732248, 1.1, 0.9, 1.1, 0.9
  2029,'',   161, 1, 1, 1, 1, 1.0414584, -60.90115, 1.1, 0.9, 1.1, 0.9
  2030,'',   161, 1, 1, 1, 1, 0.99429982, -83.508344, 1.1, 0.9, 1.1, 0.9
  2031,'',   161, 1, 1, 1, 1, 1.0251254, -55.13705, 1.1, 0.9, 1.1, 0.9
  2032,'',   161, 1, 1, 1, 1, 1.009229, -79.166212, 1.1, 0.9, 1.1, 0.9
  2033,'',   161, 1, 1, 1, 1, 0.99595263, -84.839624, 1.1, 0.9, 1.1, 0.9
  2034,'',   161, 1, 1, 1, 1, 0.99960597, -88.147764, 1.1, 0.9, 1.1, 0.9
  2035,'',   161, 1, 1, 1, 1, 1.0123895, -54.736874, 1.1, 0.9, 1.1, 0.9
  2036,'',   161, 1, 1, 1, 1, 1.0023237, -67.415148, 1.1, 0.9, 1.1, 0.9
  2037,'',   161, 1, 1, 1, 1, 1.0051618, -83.414116, 1.1, 0.9, 1.1, 0.9
  2038,'',   161, 1, 1, 1, 1, 1.0079779, -83.741048, 1.1, 0.9, 1.1, 0.9
  2039,'',   161, 1, 1, 1, 1, 0.99050266, -80.630809, 1.1, 0.9, 1.1, 0.9
  2040,'',   161, 1, 1, 1, 1, 1.0123482, -79.306196, 1.1, 0.9, 1.1, 0.9
  2041,'',   161, 1, 1, 1, 1, 1.0431724, -58.7846, 1.1, 0.9, 1.1, 0.9
  2042,'',    18, 2, 1, 1, 1, 1.0349321, -57.247372, 1.1, 0.9, 1.1, 0.9
  2043,'',   161, 1, 1, 1, 1, 1.0003762, -88.425167, 1.1, 0.9, 1.1, 0.9
  2044,'',   161, 1, 1, 1, 1, 1.0019583, -84.759781, 1.1, 0.9, 1.1, 0.9
  2045,'',   161, 1, 1, 1, 1, 1.0002492, -68.251341, 1.1, 0.9, 1.1, 0.9
  2046,'',   161, 1, 1, 1, 1, 0.99911518, -87.797661, 1.1, 0.9, 1.1, 0.9
  2047,'',   161, 1, 1, 1, 1, 1.0077902, -84.116216, 1.1, 0.9, 1.1, 0.9
  2048,'',   161, 1, 1, 1, 1, 1.0326043, -57.804307, 1.1, 0.9, 1.1, 0.9
  2049,'',   161, 1, 1, 1, 1, 1.0069017, -63.818288, 1.1, 0.9, 1.1, 0.9
  2050,'',   161, 1, 1, 1, 1, 1.0006295, -82.792265, 1.1, 0.9, 1.1, 0.9
  2051,'',   161, 1, 1, 1, 1, 0.99141589, -75.491731, 1.1, 0.9, 1.1, 0.9
  2052,'',   161, 1, 1, 1, 1, 1.0385507, -61.238724, 1.1, 0.9, 1.1, 0.9
  2053,'',   161, 1, 1, 1, 1, 0.99268401, -79.000117, 1.1, 0.9, 1.1, 0.9
  2054,'',   500, 1, 1, 1, 1, 1.0086442, -66.366025, 1.1, 0.9, 1.1, 0.9
  2055,'',   161, 1, 1, 1, 1, 1.0054481, -67.04224, 1.1, 0.9, 1.1, 0.9
  2056,'',    18, 2, 1, 1, 1, 1.0086442, -66.366025, 1.1, 0.9, 1.1, 0.9
  2057,'',    18, 2, 1, 1, 1, 0.99742394, -63.939732, 1.1, 0.9, 1.1, 0.9
  2058,'',   161, 1, 1, 1, 1, 1.0414324, -58.887919, 1.1, 0.9, 1.1, 0.9
  2059,'',  13.8, 2, 1, 1, 1, 1.0302246, -58.80108, 1.1, 0.9, 1.1, 0.9
  2060,'',   161, 1, 1, 1, 1, 1.0030031, -81.645315, 1.1, 0.9, 1.1, 0.9
  2061,'',   161, 1, 1, 1, 1, 1.0161195, -60.65566, 1.1, 0.9, 1.1, 0.9
  2062,'',    18, 2, 1, 1, 1, 1.02, -58.375549, 1.1, 0.9, 1.1, 0.9
  2063,'',   161, 1, 1, 1, 1, 1, -87.22001, 1.1, 0.9, 1.1, 0.9
  2064,'',   161, 1, 1, 1, 1, 1.0080934, -80.157622, 1.1, 0.9, 1.1, 0.9
  2065,'',   161, 1, 1, 1, 1, 1, -84.962443, 1.1, 0.9, 1.1, 0.9
  2066,'',   161, 1, 1, 1, 1, 1.0128529, -51.994266, 1.1, 0.9, 1.1, 0.9
  2067,'',   161, 1, 1, 1, 1, 1.0003708, -66.962604, 1.1, 0.9, 1.1, 0.9
  2068,'',   161, 1, 1, 1, 1, 1.0043807, -64.797067, 1.1, 0.9, 1.1, 0.9
  2069,'',   161, 1, 1, 1, 1, 1.015, -87.996269, 1.1, 0.9, 1.1, 0.9
  2070,'',   161, 1, 1, 1, 1, 1.0058485, -64.465601, 1.1, 0.9, 1.1, 0.9
  2071,'',    18, 2, 1, 1, 1, 1, -62.181334, 1.1, 0.9, 1.1, 0.9
  2072,'',   161, 1, 1, 1, 1, 1.0124925, -86.346884, 1.1, 0.9, 1.1, 0.9
  2073,'',   161, 1, 1, 1, 1, 1.0144146, -49.648155, 1.1, 0.9, 1.1, 0.9
  2074,'',   115, 1, 1, 1, 1, 1.000921, -47.180831, 1.1, 0.9, 1.1, 0.9
  2075,'',   115, 1, 1, 1, 1, 1.000921, -47.180831, 1.1, 0.9, 1.1, 0.9
  2076,'',    24, 2, 1, 1, 1, 1.0198199, -48.469488, 1.1, 0.9, 1.1, 0.9
  2077,'',   161, 1, 1, 1, 1, 1.0123499, -81.559993, 1.1, 0.9, 1.1, 0.9
  2078,'',  13.8, 2, 1, 1, 1, 1.02, -79.237814, 1.1, 0.9, 1.1, 0.9
  2079,'',   161, 1, 1, 1, 1, 1.0218799, -59.386734, 1.1, 0.9, 1.1, 0.9
  2080,'',   161, 1, 1, 1, 1, 0.99477294, -78.278478, 1.1, 0.9, 1.1, 0.9
  2081,'',   161, 1, 1, 1, 1, 1.0037117, -84.452646, 1.1, 0.9, 1.1, 0.9
  2082,'',   161, 1, 1, 1, 1, 1.000828, -67.623727, 1.1, 0.9, 1.1, 0.9
  2083,'',    20, 2, 1, 1, 1, 1.0155753, -66.033327, 1.1, 0.9, 1.1, 0.9
  2084,'',    20, 2, 1, 1, 1, 1.000828, -67.623727, 1.1, 0.9, 1.1, 0.9
  2085,'',    20, 2, 1, 1, 1, 1.000828, -67.623727, 1.1, 0.9, 1.1, 0.9
  2086,'',   161, 1, 1, 1, 1, 0.99223304, -79.748753, 1.1, 0.9, 1.1, 0.9
  2087,'',   161, 1, 1, 1, 1, 1.0188708, -52.45696, 1.1, 0.9, 1.1, 0.9
  2088,'',   161, 1, 1, 1, 1, 1.0050898, -64.481084, 1.1, 0.9, 1.1, 0.9
  2089,'',    24, 2, 1, 1, 1, 1, -59.72929, 1.1, 0.9, 1.1, 0.9
  2090,'',   161, 1, 1, 1, 1, 1.008329, -80.840246, 1.1, 0.9, 1.1, 0.9
  2091,'',   161, 1, 1, 1, 1, 1.0112737, -57.950235, 1.1, 0.9, 1.1, 0.9
  2092,'',   161, 1, 1, 1, 1, 1.0026983, -85.732216, 1.1, 0.9, 1.1, 0.9
  2093,'',   161, 1, 1, 1, 1, 1.0471023, -60.006781, 1.1, 0.9, 1.1, 0.9
  2094,'',  13.8, 2, 1, 1, 1, 1.0471023, -60.006781, 1.1, 0.9, 1.1, 0.9
  2095,'',  13.8, 2, 1, 1, 1, 1.0471023, -60.006781, 1.1, 0.9, 1.1, 0.9
  2096,'',   500, 1, 1, 1, 1, 1.0605322, -57.627496, 1.1, 0.9, 1.1, 0.9
  2097,'',   230, 1, 1, 1, 1, 1.0562976, -56.987683, 1.1, 0.9, 1.1, 0.9
  2098,'',   161, 1, 1, 1, 1, 1.0467627, -58.426498, 1.1, 0.9, 1.1, 0.9
  2099,'',    18, 2, 1, 1, 1, 1.0606749, -57.613394, 1.1, 0.9, 1.1, 0.9
  2100,'',    18, 2, 1, 1, 1, 1.052527, -57.361084, 1.1, 0.9, 1.1, 0.9
  2101,'',   500, 1, 1, 1, 1, 1.0132928, -82.314578, 1.1, 0.9, 1.1, 0.9
  2102,'',   161, 1, 1, 1, 1, 1.0113995, -83.613059, 1.1, 0.9, 1.1, 0.9
  2103,'',    20, 2, 1, 1, 1, 1.0132928, -82.314578, 1.1, 0.9, 1.1, 0.9
  2104,'',    20, 2, 1, 1, 1, 1.0132928, -82.314578, 1.1, 0.9, 1.1, 0.9
  2105,'',    20, 2, 1, 1, 1, 1.0132928, -82.314578, 1.1, 0.9, 1.1, 0.9
  2106,'',   161, 1, 1, 1, 1, 0.99404677, -85.421726, 1.1, 0.9, 1.1, 0.9
  2107,'',   161, 1, 1, 1, 1, 1.006615, -84.386132, 1.1, 0.9, 1.1, 0.9
  2108,'',   161, 1, 1, 1, 1, 1.0034638, -64.617535, 1.1, 0.9, 1.1, 0.9
  2109,'',   161, 1, 1, 1, 1, 0.99553567, -68.829362, 1.1, 0.9, 1.1, 0.9
...
0 / END OF BUS DATA, BEGIN LOAD DATA
1001, '1', 1, 1, 1, 18.759, 5.315, 0, 0, 0, 0, 1, 1, 0
1002, '1', 1, 1, 1, 13.914, 3.942, 0, 0, 0, 0, 1, 1, 0
1007, '1', 1, 1, 1, 6.326, 1.792, 0, 0, 0, 0, 1, 1, 0
1012, '1', 1, 1, 1, 2.695, 0.763, 0, 0, 0, 0, 1, 1, 0
1013, '1', 1, 1, 1, 26.381, 7.474, 0, 0, 0, 0, 1, 1, 0
1014, '1', 1, 1, 1, 2.004, 0.568, 0, 0, 0, 0, 1, 1, 0
1015, '1', 1, 1, 1, 6.778, 1.92, 0, 0, 0, 0, 1, 1, 0
1016, '1', 1, 1, 1, 2.608, 0.739, 0, 0, 0, 0, 1, 1, 0
1017, '1', 1, 1, 1, 16.56, 4.692, 0, 0, 0, 0, 1, 1, 0
1018, '1', 1, 1, 1, 0.062, 0.018, 0, 0, 0, 0, 1, 1, 0
1019, '1', 1, 1, 1, 55.764, 15.8, 0, 0, 0, 0, 1, 1, 0
1024, '1', 1, 1, 1, 56.904, 16.123, 0, 0, 0, 0, 1, 1, 0
1027, '1', 1, 1, 1, 91.361, 25.885, 0, 0, 0, 0, 1, 1, 0
1028, '1', 1, 1, 1, 9.039, 2.561, 0, 0, 0, 0, 1, 1, 0
1029, '1', 1, 1, 1, 75.089, 21.275, 0, 0, 0, 0, 1, 1, 0
1030, '1', 1, 1, 1, 22.23, 6.298, 0, 0, 0, 0, 1, 1, 0
1031, '1', 1, 1, 1, 8.346, 2.365, 0, 0, 0, 0, 1, 1, 0
1036, '1', 1, 1, 1, 12.273, 3.477, 0, 0, 0, 0, 1, 1, 0
1037, '1', 1, 1, 1, 92.287, 26.148, 0, 0, 0, 0, 1, 1, 0
1040, '1', 1, 1, 1, 40.041, 11.345, 0, 0, 0, 0, 1, 1, 0
1044, '1', 1, 1, 1, 13.253, 3.755, 0, 0, 0, 0, 1, 1, 0
1045, '1', 1, 1, 1, 88.97, 25.208, 0, 0, 0, 0, 1, 1, 0
1046, '1', 1, 1, 1, 10.006, 2.836, 0, 0, 0, 0, 1, 1, 0
1054, '1', 1, 1, 1, 13.529, 3.833, 0, 0, 0, 0, 1, 1, 0
1055, '1', 1, 1, 1, 3.591, 1.017, 0, 0, 0, 0, 1, 1, 0
1058, '1', 1, 1, 1, 12.145, 3.441, 0, 0, 0, 0, 1, 1, 0
1064, '1', 1, 1, 1, 111.715, 31.653, 0, 0, 0, 0, 1, 1, 0
1067, '1', 1, 1, 1, 91.667, 25.972, 0, 0, 0, 0, 1, 1, 0
1068, '1', 1, 1, 1, 53.622, 15.192, 0, 0, 0, 0, 1, 1, 0
1071, '1', 1, 1, 1, 82.563, 23.393, 0, 0, 0, 0, 1, 1, 0
1083, '1', 1, 1, 1, 36.058, 10.216, 0, 0, 0, 0, 1, 1, 0
1085, '1', 1, 1, 1, 19.225, 5.447, 0, 0, 0, 0, 1, 1, 0
1086, '1', 1, 1, 1, 35.811, 10.146, 0, 0, 0, 0, 1, 1, 0
1087, '1', 1, 1, 1, 0.821, 0.232, 0, 0, 0, 0, 1, 1, 0
1089, '1', 1, 1, 1, 36.653, 10.386, 0, 0, 0, 0, 1, 1, 0
1091, '1', 1, 1, 1, 10.491, 2.972, 0, 0, 0, 0, 1, 1, 0
2001, '1', 1, 1, 1, 43.311, 12.272, 0, 0, 0, 0, 1, 1, 0
2007, '1', 1, 1, 1, 8.544, 2.421, 0, 0, 0, 0, 1, 1, 0
2008, '1', 1, 1, 1, 7.22, 2.046, 0, 0, 0, 0, 1, 1, 0
2009, '1', 1, 1, 1, 35.051, 9.931, 0, 0, 0, 0, 1, 1, 0
2010, '1', 1, 1, 1, 50.877, 14.416, 0, 0, 0, 0, 1, 1, 0
2014, '1', 1, 1, 1, 22.775, 6.453, 0, 0, 0, 0, 1, 1, 0
2015, '1', 1, 1, 1, 4.197, 1.189, 0, 0, 0, 0, 1, 1, 0
2016, '1', 1, 1, 1, 62.038, 17.578, 0, 0, 0, 0, 1, 1, 0
2020, '1', 1, 1, 1, 42.967, 12.174, 0, 0, 0, 0, 1, 1, 0
2022, '1', 1, 1, 1, 10.358, 2.935, 0, 0, 0, 0, 1, 1, 0
2025, '1', 1, 1, 1, 35.484, 10.054, 0, 0, 0, 0, 1, 1, 0
2026, '1', 1, 1, 1, 16.632, 4.712, 0, 0, 0, 0, 1, 1, 0
2027, '1', 1, 1, 1, 3.184, 0.902, 0, 0, 0, 0, 1, 1, 0
2028, '1', 1, 1, 1, 12.752, 3.613, 0, 0, 0, 0, 1, 1, 0
2029, '1', 1, 1, 1, 2.867, 0.812, 0, 0, 0, 0, 1, 1, 0
2030, '1', 1, 1, 1, 42.225, 11.964, 0, 0, 0, 0, 1, 1, 0
2031, '1', 1, 1, 1, 5.164, 1.463, 0, 0, 0, 0, 1, 1, 0
2032, '1', 1, 1, 1, 3.004, 0.851, 0, 0, 0, 0, 1, 1, 0
2033, '1', 1, 1, 1, 12.156, 3.444, 0, 0, 0, 0, 1, 1, 0
2034, '1', 1, 1, 1, 4.783, 1.355, 0, 0, 0, 0, 1, 1, 0
2035, '1', 1, 1, 1, 4.194, 1.189, 0, 0, 0, 0, 1, 1, 0
2036, '1', 1, 1, 1, 37.246, 10.553, 0, 0, 0, 0, 1, 1, 0
2037, '1', 1, 1, 1, 3.136, 0.888, 0, 0, 0, 0, 1, 1, 0
2038, '1', 1, 1, 1, 2.332, 0.661, 0, 0, 0, 0, 1, 1, 0
2039, '1', 1, 1, 1, 4.979, 1.411, 0, 0, 0, 0, 1, 1, 0
2040, '1', 1, 1, 1, 14.243, 4.036, 0, 0, 0, 0, 1, 1, 0
2043, '1', 1, 1, 1, 3.794, 1.075, 0, 0, 0, 0, 1, 1, 0
2044, '1', 1, 1, 1, 24.545, 6.954, 0, 0, 0, 0, 1, 1, 0
2045, '1', 1, 1, 1, 20.246, 5.736, 0, 0, 0, 0, 1, 1, 0
2046, '1', 1, 1, 1, 19.824, 5.617, 0, 0, 0, 0, 1, 1, 0
2047, '1', 1, 1, 1, 13.394, 3.795, 0, 0, 0, 0, 1, 1, 0
2048, '1', 1, 1, 1, 5.747, 1.628, 0, 0, 0, 0, 1, 1, 0
2049, '1', 1, 1, 1, 10.364, 2.936, 0, 0, 0, 0, 1, 1, 0
2050, '1', 1, 1, 1, 3.275, 0.928, 0, 0, 0, 0, 1, 1, 0
2051, '1', 1, 1, 1, 15.987, 4.53, 0, 0, 0, 0, 1, 1, 0
2052, '1', 1, 1, 1, 22.245, 6.302, 0, 0, 0, 0, 1, 1, 0
2053, '1', 1, 1, 1, 26.093, 7.393, 0, 0, 0, 0, 1, 1, 0
2055, '1', 1, 1, 1, 44.442, 12.592, 0, 0, 0, 0, 1, 1, 0
2060, '1', 1, 1, 1, 3.399, 0.963, 0, 0, 0, 0, 1, 1, 0
2063, '1', 1, 1, 1, 58.768, 16.651, 0, 0, 0, 0, 1, 1, 0
2064, '1', 1, 1, 1, 8.999, 2.55, 0, 0, 0, 0, 1, 1, 0
2065, '1', 1, 1, 1, 70.183, 19.885, 0, 0, 0, 0, 1, 1, 0
2066, '1', 1, 1, 1, 6.371, 1.805, 0, 0, 0, 0, 1, 1, 0
2067, '1', 1, 1, 1, 48.335, 13.695, 0, 0, 0, 0, 1, 1, 0
2068, '1', 1, 1, 1, 5.159, 1.462, 0, 0, 0, 0, 1, 1, 0
2069, '1', 1, 1, 1, 19.636, 5.564, 0, 0, 0, 0, 1, 1, 0
2072, '1', 1, 1, 1, 8.692, 2.463, 0, 0, 0, 0, 1, 1, 0
2079, '1', 1, 1, 1, 4.012, 1.137, 0, 0, 0, 0, 1, 1, 0
2080, '1', 1, 1, 1, 15.165, 4.297, 0, 0, 0, 0, 1, 1, 0
2081, '1', 1, 1, 1, 3.998, 1.133, 0, 0, 0, 0, 1, 1, 0
2082, '1', 1, 1, 1, 52.871, 14.98, 0, 0, 0, 0, 1, 1, 0
2086, '1', 1, 1, 1, 1.964, 0.557, 0, 0, 0, 0, 1, 1, 0
2087, '1', 1, 1, 1, 7.072, 2.004, 0, 0, 0, 0, 1, 1, 0
2090, '1', 1, 1, 1, 2.171, 0.615, 0, 0, 0, 0, 1, 1, 0
2091, '1', 1, 1, 1, 15.267, 4.326, 0, 0, 0, 0, 1, 1, 0
2092, '1', 1, 1, 1, 21.592, 6.118, 0, 0, 0, 0, 1, 1, 0
2106, '1', 1, 1, 1, 12.9, 3.655, 0, 0, 0, 0, 1, 1, 0
2107, '1', 1, 1, 1, 66.413, 18.817, 0, 0, 0, 0, 1, 1, 0
2108, '1', 1, 1, 1, 1.921, 0.544, 0, 0, 0, 0, 1, 1, 0
2109, '1', 1, 1, 1, 30.282, 8.58, 0, 0, 0, 0, 1, 1, 0
2110, '1', 1, 1, 1, 7.693, 2.18, 0, 0, 0, 0, 1, 1, 0
2111, '1', 1, 1, 1, 12.497, 3.541, 0, 0, 0, 0, 1, 1, 0
2112, '1', 1, 1, 1, 4.068, 1.153, 0, 0, 0, 0, 1, 1, 0
2114, '1', 1, 1, 1, 63.39, 17.96, 0, 0, 0, 0, 1, 1, 0
2121, '1', 1, 1, 1, 2.09, 0.592, 0, 0, 0, 0, 1, 1, 0
2122, '1', 1, 1, 1, 6.021, 1.706, 0, 0, 0, 0, 1, 1, 0
2124, '1', 1, 1, 1, 19.064, 5.401, 0, 0, 0, 0, 1, 1, 0
2125, '1', 1, 1, 1, 3.633, 1.029, 0, 0, 0, 0, 1, 1, 0
2126, '1', 1, 1, 1, 12.749, 3.612, 0, 0, 0, 0, 1, 1, 0
2129, '1', 1, 1, 1, 5.941, 1.683, 0, 0, 0, 0, 1, 1, 0
2132, '1', 1, 1, 1, 10.694, 3.03, 0, 0, 0, 0, 1, 1, 0
2133, '1', 1, 1, 1, 5.086, 1.441, 0, 0, 0, 0, 1, 1, 0
3002, '1', 1, 1, 1, 98.676, 27.958, 0, 0, 0, 0, 1, 1, 0
3005, '1', 1, 1, 1, 6.418, 1.818, 0, 0, 0, 0, 1, 1, 0
3006, '1', 1, 1, 1, 6.424, 1.82, 0, 0, 0, 0, 1, 1, 0
3007, '1', 1, 1, 1, 13.083, 3.707, 0, 0, 0, 0, 1, 1, 0
3008, '1', 1, 1, 1, 17.32, 4.907, 0, 0, 0, 0, 1, 1, 0
3009, '1', 1, 1, 1, 10.964, 3.106, 0, 0, 0, 0, 1, 1, 0
3010, '1', 1, 1, 1, 4.084, 1.157, 0, 0, 0, 0, 1, 1, 0
3011, '1', 1, 1, 1, 23.728, 6.723, 0, 0, 0, 0, 1, 1, 0
3012, '1', 1, 1, 1, 0.493, 0.14, 0, 0, 0, 0, 1, 1, 0
3013, '1', 1, 1, 1, 56.444, 15.992, 0, 0, 0, 0, 1, 1, 0
3014, '1', 1, 1, 1, 19.237, 5.45, 0, 0, 0, 0, 1, 1, 0
3015, '1', 1, 1, 1, 4.69, 1.329, 0, 0, 0, 0, 1, 1, 0
3021, '1', 1, 1, 1, 1.697, 0.481, 0, 0, 0, 0, 1, 1, 0
3022, '1', 1, 1, 1, 21.501, 6.092, 0, 0, 0, 0, 1, 1, 0
3023, '1', 1, 1, 1, 9.099, 2.578, 0, 0, 0, 0, 1, 1, 0
3024, '1', 1, 1, 1, 8.858, 2.51, 0, 0, 0, 0, 1, 1, 0
3025, '1', 1, 1, 1, 11.956, 3.387, 0, 0, 0, 0, 1, 1, 0
3029, '1', 1, 1, 1, 4.254, 1.205, 0, 0, 0, 0, 1, 1, 0
3030, '1', 1, 1, 1, 113.417, 32.135, 0, 0, 0, 0, 1, 1, 0
3031, '1', 1, 1, 1, 12.881, 3.65, 0, 0, 0, 0, 1, 1, 0
3032, '1', 1, 1, 1, 63.707, 18.05, 0, 0, 0, 0, 1, 1, 0
3035, '1', 1, 1, 1, 3.03, 0.858, 0, 0, 0, 0, 1, 1, 0
3036, '1', 1, 1, 1, 5.073, 1.438, 0, 0, 0, 0, 1, 1, 0
3040, '1', 1, 1, 1, 12.771, 3.619, 0, 0, 0, 0, 1, 1, 0
3042, '1', 1, 1, 1, 7.654, 2.169, 0, 0, 0, 0, 1, 1, 0
3049, '1', 1, 1, 1, 9.254, 2.622, 0, 0, 0, 0, 1, 1, 0
3051, '1', 1, 1, 1, 127.03, 35.992, 0, 0, 0, 0, 1, 1, 0
3052, '1', 1, 1, 1, 7.061, 2.001, 0, 0, 0, 0, 1, 1, 0
3066, '1', 1, 1, 1, 19.266, 5.459, 0, 0, 0, 0, 1, 1, 0
3069, '1', 1, 1, 1, 3.334, 0.945, 0, 0, 0, 0, 1, 1, 0
3072, '1', 1, 1, 1, 5.233, 1.483, 0, 0, 0, 0, 1, 1, 0
3075, '1', 1, 1, 1, 10.652, 3.018, 0, 0, 0, 0, 1, 1, 0
3076, '1', 1, 1, 1, 9.437, 2.674, 0, 0, 0, 0, 1, 1, 0
3077, '1', 1, 1, 1, 60.027, 17.008, 0, 0, 0, 0, 1, 1, 0
3093, '1', 1, 1, 1, 4.412, 1.25, 0, 0, 0, 0, 1, 1, 0
3099, '1', 1, 1, 1, 10.56, 2.992, 0, 0, 0, 0, 1, 1, 0
3100, '1', 1, 1, 1, 7.454, 2.112, 0, 0, 0, 0, 1, 1, 0
3101, '1', 1, 1, 1, 8.247, 2.337, 0, 0, 0, 0, 1, 1, 0
3102, '1', 1, 1, 1, 65.797, 18.643, 0, 0, 0, 0, 1, 1, 0
3103, '1', 1, 1, 1, 34.377, 9.74, 0, 0, 0, 0, 1, 1, 0
3107, '1', 1, 1, 1, 12.999, 3.683, 0, 0, 0, 0, 1, 1, 0
3108, '1', 1, 1, 1, 20.567, 5.827, 0, 0, 0, 0, 1, 1, 0
3114, '1', 1, 1, 1, 85.952, 24.353, 0, 0, 0, 0, 1, 1, 0
3115, '1', 1, 1, 1, 8.373, 2.372, 0, 0, 0, 0, 1, 1, 0
3123, '1', 1, 1, 1, 57.763, 16.366, 0, 0, 0, 0, 1, 1, 0
3124, '1', 1, 1, 1, 56.428, 15.988, 0, 0, 0, 0, 1, 1, 0
3125, '1', 1, 1, 1, 79.788, 22.607, 0, 0, 0, 0, 1, 1, 0
3126, '1', 1, 1, 1, 8.706, 2.467, 0, 0, 0, 0, 1, 1, 0
3128, '1', 1, 1, 1, 2.466, 0.699, 0, 0, 0, 0, 1, 1, 0
3130, '1', 1, 1, 1, 80.572, 22.828, 0, 0, 0, 0, 1, 1, 0
3132, '1', 1, 1, 1, 8.362, 2.369, 0, 0, 0, 0, 1, 1, 0
3136, '1', 1, 1, 1, 41.055, 11.632, 0, 0, 0, 0, 1, 1, 0
3138, '1', 1, 1, 1, 9.571, 2.712, 0, 0, 0, 0, 1, 1, 0
3139, '1', 1, 1, 1, 13.041, 3.695, 0, 0, 0, 0, 1, 1, 0
3140, '1', 1, 1, 1, 0.194, 0.055, 0, 0, 0, 0, 1, 1, 0
3142, '1', 1, 1, 1, 6.18, 1.751, 0, 0, 0, 0, 1, 1, 0
3143, '1', 1, 1, 1, 5.031, 1.425, 0, 0, 0, 0, 1, 1, 0
3144, '1', 1, 1, 1, 4.857, 1.376, 0, 0, 0, 0, 1, 1, 0
3145, '1', 1, 1, 1, 2.57, 0.728, 0, 0, 0, 0, 1, 1, 0
3146, '1', 1, 1, 1, 10.523, 2.982, 0, 0, 0, 0, 1, 1, 0
3147, '1', 1, 1, 1, 30.39, 8.61, 0, 0, 0, 0, 1, 1, 0
4002, '1', 1, 1, 1, 0.902, 0.256, 0, 0, 0, 0, 1, 1, 0
4003, '1', 1, 1, 1, 113.961, 32.289, 0, 0, 0, 0, 1, 1, 0
4005, '1', 1, 1, 1, 146.948, 41.635, 0, 0, 0, 0, 1, 1, 0
4006, '1', 1, 1, 1, 2.465, 0.699, 0, 0, 0, 0, 1, 1, 0
4007, '1', 1, 1, 1, 164.422, 46.586, 0, 0, 0, 0, 1, 1, 0
4008, '1', 1, 1, 1, 29.09, 8.242, 0, 0, 0, 0, 1, 1, 0
4011, '1', 1, 1, 1, 14.369, 4.071, 0, 0, 0, 0, 1, 1, 0
4012, '1', 1, 1, 1, 12.301, 3.485, 0, 0, 0, 0, 1, 1, 0
4013, '1', 1, 1, 1, 82.677, 23.425, 0, 0, 0, 0, 1, 1, 0
4015, '1', 1, 1, 1, 143.07, 40.536, 0, 0, 0, 0, 1, 1, 0
4016, '1', 1, 1, 1, 5.592, 1.584, 0, 0, 0, 0, 1, 1, 0
4017, '1', 1, 1, 1, 80.182, 22.718, 0, 0, 0, 0, 1, 1, 0
4018, '1', 1, 1, 1, 6.39, 1.81, 0, 0, 0, 0, 1, 1, 0
4019, '1', 1, 1, 1, 121.603, 34.454, 0, 0, 0, 0, 1, 1, 0
4020, '1', 1, 1, 1, 105.474, 29.884, 0, 0, 0, 0, 1, 1, 0
4021, '1', 1, 1, 1, 28.623, 8.11, 0, 0, 0, 0, 1, 1, 0
4022, '1', 1, 1, 1, 4.982, 1.412, 0, 0, 0, 0, 1, 1, 0
4023, '1', 1, 1, 1, 4.534, 1.285, 0, 0, 0, 0, 1, 1, 0
4027, '1', 1, 1, 1, 58.298, 16.518, 0, 0, 0, 0, 1, 1, 0
4031, '1', 1, 1, 1, 2.46, 0.697, 0, 0, 0, 0, 1, 1, 0
4032, '1', 1, 1, 1, 81.818, 23.182, 0, 0, 0, 0, 1, 1, 0
4033, '1', 1, 1, 1, 113.027, 32.024, 0, 0, 0, 0, 1, 1, 0
4034, '1', 1, 1, 1, 33.699, 9.548, 0, 0, 0, 0, 1, 1, 0
4035, '1', 1, 1, 1, 70.87, 20.08, 0, 0, 0, 0, 1, 1, 0
4036, '1', 1, 1, 1, 31.397, 8.896, 0, 0, 0, 0, 1, 1, 0
4037, '1', 1, 1, 1, 25.714, 7.286, 0, 0, 0, 0, 1, 1, 0
4038, '1', 1, 1, 1, 74.579, 21.131, 0, 0, 0, 0, 1, 1, 0
4040, '1', 1, 1, 1, 202.029, 57.241, 0, 0, 0, 0, 1, 1, 0
4042, '1', 1, 1, 1, 192.642, 54.582, 0, 0, 0, 0, 1, 1, 0
4043, '1', 1, 1, 1, 2.216, 0.628, 0, 0, 0, 0, 1, 1, 0
4048, '1', 1, 1, 1, 11.732, 3.324, 0, 0, 0, 0, 1, 1, 0
...
0 / END OF LOAD DATA, BEGIN FIXED SHUNT DATA
0 / END OF FIXED SHUNT DATA, BEGIN GENERATOR DATA
1004, '1', 18.3, -30.38, 44.94, -30.38, 1.0215999, 0, 0, 0, 1.0, 0, 0, 1, 1, 1, 18.3, 0, 1, 1, 0, 1, 0, 1, 0, 1, 0, 1
1006, '1', 19.9, -4.94, 7.31, -4.94, 1, 0, 0, 0, 1.0, 0, 0, 1, 1, 1, 19.9, 0, 1, 1, 0, 1, 0, 1, 0, 1, 0, 1
1009, '1', 41.2, -11.88, 17.57, -11.88, 1.0059036, 0, 0, 0, 1.0, 0, 0, 1, 1, 1, 41.2, 0, 1, 1, 0, 1, 0, 1, 0, 1, 0, 1
1011, '1', 0, 0, 0, 0, 1.0327639, 0, 0, 0, 1.0, 0, 0, 1, 1, 1, 0, 0, 1, 1, 0, 1, 0, 1, 0, 1, 0, 1
1021, '1', 75.2, -28.73, 42.49, -28.73, 1, 0, 0, 0, 1.0, 0, 0, 1, 1, 1, 75.2, 0, 1, 1, 0, 1, 0, 1, 0, 1, 0, 1
1023, '1', 101.4, -25.92, 38.34, -25.92, 1.01, 0, 0, 0, 1.0, 0, 0, 1, 1, 1, 101.4, 0, 1, 1, 0, 1, 0, 1, 0, 1, 0, 1
1026, '1', 64.5, -17.88, 26.45, -17.88, 1, 0, 0, 0, 1.0, 0, 0, 1, 1, 1, 64.5, 0, 1, 1, 0, 1, 0, 1, 0, 1, 0, 1
1033, '1', 195.2, -40.03, 59.21, -40.03, 1, 0, 0, 0, 1.0, 0, 0, 1, 1, 1, 195.2, 0, 1, 1, 0, 1, 0, 1, 0, 1, 0, 1
1035, '1', 41.3, -12.96, 19.17, -12.96, 1, 0, 0, 0, 1.0, 0, 0, 1, 1, 1, 41.3, 0, 1, 1, 0, 1, 0, 1, 0, 1, 0, 1
1039, '1', 77.9, -21.24, 31.42, -21.24, 1, 0, 0, 0, 1.0, 0, 0, 1, 1, 1, 77.9, 0, 1, 1, 0, 1, 0, 1, 0, 1, 0, 1
1042, '1', 75.617, -0.852, 25.96, -17.55, 1.0008495, 0, 0, 0, 1.0, 0, 0, 1, 0, 1, 80, 0, 1, 1, 0, 1, 0, 1, 0, 1, 0, 1
1043, '1', 38.6, -8.47, 12.52, -8.47, 1, 0, 0, 0, 1.0, 0, 0, 1, 1, 1, 38.6, 0, 1, 1, 0, 1, 0, 1, 0, 1, 0, 1
1048, '1', 0, -9.473, 165.53, -36.1, 1.0045247, 0, 0, 0, 1.0, 0, 0, 1, 0, 1, 325.2, 97.56, 1, 1, 0, 1, 0, 1, 0, 1, 0, 1
1049, '1', 0, -0.955, 165.53, -36.1, 1.0045247, 0, 0, 0, 1.0, 0, 0, 1, 0, 1, 325.2, 97.56, 1, 1, 0, 1, 0, 1, 0, 1, 0, 1
1050, '1', 89.4, -9.92, 45.5, -9.92, 1, 0, 0, 0, 1.0, 0, 0, 1, 1, 1, 89.4, 26.82, 1, 1, 0, 1, 0, 1, 0, 1, 0, 1
1051, '1', 89.4, -9.92, 45.5, -9.92, 1, 0, 0, 0, 1.0, 0, 0, 1, 1, 1, 89.4, 26.82, 1, 1, 0, 1, 0, 1, 0, 1, 0, 1
1052, '1', 89.4, -9.92, 45.5, -9.92, 1, 0, 0, 0, 1.0, 0, 0, 1, 1, 1, 89.4, 26.82, 1, 1, 0, 1, 0, 1, 0, 1, 0, 1
1053, '1', 0, -19.85, 91.01, -19.85, 1.0063717, 0, 0, 0, 1.0, 0, 0, 1, 0, 1, 178.8, 53.64, 1, 1, 0, 1, 0, 1, 0, 1, 0, 1
1057, '1', 27.886, -11.59, 25.56, -17.28, 1.015, 0, 0, 0, 1.0, 0, 0, 1, 0, 1, 32.2, 0, 1, 1, 0, 1, 0, 1, 0, 1, 0, 1
1059, '1', 0, 2.85, 2.85, -0.62, 1.018692, 0, 0, 0, 1.0, 0, 0, 1, 0, 1, 5.6, 1.68, 1, 1, 0, 1, 0, 1, 0, 1, 0, 1
1060, '1', 0, 1.02, 1.02, -0.22, 1.018692, 0, 0, 0, 1.0, 0, 0, 1, 0, 1, 2, 0.6, 1, 1, 0, 1, 0, 1, 0, 1, 0, 1
1062, '1', 1.499, 0, 0, 0, 1.0057547, 0, 0, 0, 1.0, 0, 0, 1, 0, 1, 1.5, 0.45, 1, 1, 0, 1, 0, 1, 0, 1, 0, 1
1063, '1', 171.224, 0, 0, 0, 1.0057547, 0, 0, 0, 1.0, 0, 0, 1, 0, 1, 230, 69, 1, 1, 0, 1, 0, 1, 0, 1, 0, 1
1066, '1', 67.4, -20.52, 30.35, -20.52, 1, 0, 0, 0, 1.0, 0, 0, 1, 1, 1, 67.4, 0, 1, 1, 0, 1, 0, 1, 0, 1, 0, 1
1070, '1', 73.6, -23.11, 34.19, -23.11, 1.04, 0, 0, 0, 1.0, 0, 0, 1, 1, 1, 73.6, 0, 1, 1, 0, 1, 0, 1, 0, 1, 0, 1
1072, '1', 166.30444, -21.33, 97.8, -21.33, 1.01, 0, 0, 0, 1.0, 0, 0, 1, 1, 1, 192.13, 57.64, 1, 1, 0, 1, 0, 1, 0, 1, 0, 1
1073, '1', 166.30444, -21.33, 97.8, -21.33, 1.01, 0, 0, 0, 1.0, 0, 0, 1, 1, 1, 192.13, 57.64, 1, 1, 0, 1, 0, 1, 0, 1, 0, 1
1074, '1', 166.30444, -21.33, 97.8, -21.33, 1.01, 0, 0, 0, 1.0, 0, 0, 1, 1, 1, 192.13, 57.64, 1, 1, 0, 1, 0, 1, 0, 1, 0, 1
1075, '1', 166.30444, -21.33, 97.8, -21.33, 1.01, 0, 0, 0, 1.0, 0, 0, 1, 1, 1, 192.13, 57.64, 1, 1, 0, 1, 0, 1, 0, 1, 0, 1
1076, '1', 57.744, 6.787, 97.8, -21.33, 0.99305488, 0, 0, 0, 1.0, 0, 0, 1, 0, 1, 192.13, 57.64, 1, 1, 0, 1, 0, 1, 0, 1, 0, 1
1077, '1', 57.744, 2.026, 97.8, -21.33, 0.99305488, 0, 0, 0, 1.0, 0, 0, 1, 0, 1, 192.13, 57.64, 1, 1, 0, 1, 0, 1, 0, 1, 0, 1
1078, '1', 95.5, -10.6, 48.61, -10.6, 1.01, 0, 0, 0, 1.0, 0, 0, 1, 1, 1, 95.5, 28.65, 1, 1, 0, 1, 0, 1, 0, 1, 0, 1
1079, '1', 95.5, -10.6, 48.61, -10.6, 1.0263944, 0, 0, 0, 1.0, 0, 0, 1, 1, 1, 95.5, 28.65, 1, 1, 0, 1, 0, 1, 0, 1, 0, 1
1080, '1', 95.5, -10.6, 48.61, -10.6, 1.01, 0, 0, 0, 1.0, 0, 0, 1, 1, 1, 95.5, 28.65, 1, 1, 0, 1, 0, 1, 0, 1, 0, 1
1081, '1', 0, -23.361, 145.83, -31.8, 1.0054181, 0, 0, 0, 1.0, 0, 0, 1, 0, 1, 286.5, 85.95, 1, 1, 0, 1, 0, 1, 0, 1, 0, 1
1082, '1', 101.4, -21.6, 31.95, -21.6, 1.0160741, 0, 0, 0, 1.0, 0, 0, 1, 1, 1, 101.4, 0, 1, 1, 0, 1, 0, 1, 0, 1, 0, 1
1084, '1', 53.9, -16.63, 24.6, -16.63, 1.0202113, 0, 0, 0, 1.0, 0, 0, 1, 1, 1, 53.9, 0, 1, 1, 0, 1, 0, 1, 0, 1, 0, 1
1088, '1', 46, -10.8, 15.97, -10.8, 1, 0, 0, 0, 1.0, 0, 0, 1, 1, 1, 46, 0, 1, 1, 0, 1, 0, 1, 0, 1, 0, 1
1090, '1', 84.6, -21.96, 32.48, -21.96, 1.02, 0, 0, 0, 1.0, 0, 0, 1, 1, 1, 84.6, 0, 1, 1, 0, 1, 0, 1, 0, 1, 0, 1
1090, '2', 20, -5.18, 7.67, -5.18, 1.02, 0, 0, 0, 1.0, 0, 0, 1, 1, 1, 20, 0, 1, 1, 0, 1, 0, 1, 0, 1, 0, 1
2004, '1', 0, 0, 199.43, -43.49, 1.0134094, 0, 0, 0, 1.0, 0, 0, 1, 0, 1, 391.8, 117.54, 1, 1, 0, 1, 0, 1, 0, 1, 0, 1
2005, '1', 0, 0, 199.43, -43.49, 1.0134094, 0, 0, 0, 1.0, 0, 0, 1, 0, 1, 391.8, 117.54, 1, 1, 0, 1, 0, 1, 0, 1, 0, 1
2006, '1', 0, 0, 199.43, -43.49, 1.0134094, 0, 0, 0, 1.0, 0, 0, 1, 0, 1, 391.8, 117.54, 1, 1, 0, 1, 0, 1, 0, 1, 0, 1
2013, '1', 111.8, -28.89, 42.73, -28.89, 1.0448694, 0, 0, 0, 1.0, 0, 0, 1, 1, 1, 111.8, 0, 1, 1, 0, 1, 0, 1, 0, 1, 0, 1
2019, '1', 75.562, 34.703, 46.43, -31.39, 1.04896, 0, 0, 0, 1.0, 0, 0, 1, 0, 1, 83.4, 0, 1, 1, 0, 1, 0, 1, 0, 1, 0, 1
2023, '1', 83.33, -9.25, 42.42, -9.25, 1.02, 0, 0, 0, 1.0, 0, 0, 1, 1, 1, 83.33, 25, 1, 1, 0, 1, 0, 1, 0, 1, 0, 1
2024, '1', 166.67, -18.5, 84.83, -18.5, 1.02, 0, 0, 0, 1.0, 0, 0, 1, 1, 1, 166.67, 50, 1, 1, 0, 1, 0, 1, 0, 1, 0, 1
2042, '1', 36.6, -11.46, 16.95, -11.46, 1.0349321, 0, 0, 0, 1.0, 0, 0, 1, 1, 1, 36.6, 0, 1, 1, 0, 1, 0, 1, 0, 1, 0, 1
2056, '1', 5.996, -0.73, 2.8, -0.73, 1.0096045, 0, 0, 0, 1.0, 0, 0, 1, 0, 1, 6, 1.8, 1, 1, 0, 1, 0, 1, 0, 1, 0, 1
2057, '1', 320.81892, -87.84, 335.52, -87.84, 0.99742394, 0, 0, 0, 1.0, 0, 0, 1, 1, 1, 720, 216, 1, 1, 0, 1, 0, 1, 0, 1, 0, 1
2059, '1', 1, -11.52, 17.04, -11.52, 1.0302246, 0, 0, 0, 1.0, 0, 0, 1, 1, 1, 1, 0, 1, 1, 0, 1, 0, 1, 0, 1, 0, 1
2062, '1', 100.8, -19.5, 28.84, -19.5, 1.02, 0, 0, 0, 1.0, 0, 0, 1, 1, 1, 100.8, 0, 1, 1, 0, 1, 0, 1, 0, 1, 0, 1
2071, '1', 70, -21.6, 31.95, -21.6, 1, 0, 0, 0, 1.0, 0, 0, 1, 1, 1, 70, 0, 1, 1, 0, 1, 0, 1, 0, 1, 0, 1
2076, '1', 29.1, -4.32, 6.39, -4.32, 1.0256682, 0, 0, 0, 1.0, 0, 0, 1, 1, 1, 29.1, 0, 1, 1, 0, 1, 0, 1, 0, 1, 0, 1
2078, '1', 58.9, -16.2, 23.96, -16.2, 1.02, 0, 0, 0, 1.0, 0, 0, 1, 1, 1, 58.9, 0, 1, 1, 0, 1, 0, 1, 0, 1, 0, 1
2083, '1', 20, -2.22, 10.18, -2.22, 1.0156424, 0, 0, 0, 1.0, 0, 0, 1, 1, 1, 20, 6, 1, 1, 0, 1, 0, 1, 0, 1, 0, 1
2084, '1', 19.988, 8.506, 10.18, -2.22, 1.0013542, 0, 0, 0, 1.0, 0, 0, 1, 0, 1, 20, 6, 1, 1, 0, 1, 0, 1, 0, 1, 0, 1
2085, '1', 39.975, 20.36, 20.36, -4.44, 1.0013542, 0, 0, 0, 1.0, 0, 0, 1, 0, 1, 40, 12, 1, 1, 0, 1, 0, 1, 0, 1, 0, 1
2089, '1', 67.1, -9.73, 14.4, -9.73, 1, 0, 0, 0, 1.0, 0, 0, 1, 1, 1, 67.1, 0, 1, 1, 0, 1, 0, 1, 0, 1, 0, 1
2094, '1', 4.34, -1.44, 2.13, -1.44, 1.0471642, 0, 0, 0, 1.0, 0, 0, 1, 0, 1, 4.7, 0, 1, 1, 0, 1, 0, 1, 0, 1, 0, 1
2095, '1', 34.642, -11.45, 16.93, -11.45, 1.0471642, 0, 0, 0, 1.0, 0, 0, 1, 0, 1, 37.5, 0, 1, 1, 0, 1, 0, 1, 0, 1, 0, 1
2099, '1', 0.8, -1.44, 2.13, -1.44, 1.0606749, 0, 0, 0, 1.0, 0, 0, 1, 1, 1, 0.8, 0, 1, 1, 0, 1, 0, 1, 0, 1, 0, 1
2100, '1', 11.9, -21.6, 31.95, -21.6, 1.052527, 0, 0, 0, 1.0, 0, 0, 1, 1, 1, 11.9, 0, 1, 1, 0, 1, 0, 1, 0, 1, 0, 1
2103, '1', 230.215, -29.72, 136.28, -29.72, 1.012921, 0, 0, 0, 1.0, 0, 0, 1, 0, 1, 267.73, 80.32, 1, 1, 0, 1, 0, 1, 0, 1, 0, 1
2104, '1', 230.215, -29.72, 136.28, -29.72, 1.012921, 0, 0, 0, 1.0, 0, 0, 1, 0, 1, 267.73, 80.32, 1, 1, 0, 1, 0, 1, 0, 1, 0, 1
2105, '1', 194.15, -29.72, 136.28, -29.72, 1.012921, 0, 0, 0, 1.0, 0, 0, 1, 0, 1, 267.73, 80.32, 1, 1, 0, 1, 0, 1, 0, 1, 0, 1
2115, '1', 184.72, -20.5, 94.02, -20.5, 1.0076617, 0, 0, 0, 1.0, 0, 0, 1, 1, 1, 184.72, 55.41, 1, 1, 0, 1, 0, 1, 0, 1, 0, 1
2116, '1', 184.72, -20.5, 94.02, -20.5, 1.0123006, 0, 0, 0, 1.0, 0, 0, 1, 1, 1, 184.72, 55.41, 1, 1, 0, 1, 0, 1, 0, 1, 0, 1
2117, '1', 184.72, -20.5, 94.02, -20.5, 1.0049327, 0, 0, 0, 1.0, 0, 0, 1, 1, 1, 184.72, 55.41, 1, 1, 0, 1, 0, 1, 0, 1, 0, 1
2118, '1', 184.72, -20.5, 94.02, -20.5, 1.0035682, 0, 0, 0, 1.0, 0, 0, 1, 1, 1, 184.72, 55.41, 1, 1, 0, 1, 0, 1, 0, 1, 0, 1
2119, '1', 184.72, -20.5, 94.02, -20.5, 1.011223, 0, 0, 0, 1.0, 0, 0, 1, 1, 1, 184.72, 55.41, 1, 1, 0, 1, 0, 1, 0, 1, 0, 1
2120, '1', 184.72, -20.5, 94.02, -20.5, 1.01, 0, 0, 0, 1.0, 0, 0, 1, 1, 1, 184.72, 55.41, 1, 1, 0, 1, 0, 1, 0, 1, 0, 1
2123, '1', 75.1, -26.16, 38.7, -26.16, 1.0417837, 0, 0, 0, 1.0, 0, 0, 1, 1, 1, 75.1, 0, 1, 1, 0, 1, 0, 1, 0, 1, 0, 1
2127, '1', 201.3, 28.762903, 61.47, -41.56, 1.0523696, 0, 0, 0, 1.0, 0, 0, 1, 1, 1, 201.3, 0, 1, 1, 0, 1, 0, 1, 0, 1, 0, 1
3004, '1', 34.9, -5.4, 7.99, -5.4, 1.0065304, 0, 0, 0, 1.0, 0, 0, 1, 1, 1, 34.9, 0, 1, 1, 0, 1, 0, 1, 0, 1, 0, 1
3017, '1', 152.9, -24.41, 36.1, -24.41, 1.01, 0, 0, 0, 1.0, 0, 0, 1, 1, 1, 152.9, 0, 1, 1, 0, 1, 0, 1, 0, 1, 0, 1
3020, '1', 93.9, -21.6, 31.95, -21.6, 1.03, 0, 0, 0, 1.0, 0, 0, 1, 1, 1, 93.9, 0, 1, 1, 0, 1, 0, 1, 0, 1, 0, 1
3028, '1', 197.2, -28.8, 42.6, -28.8, 1.04, 0, 0, 0, 1.0, 0, 0, 1, 1, 1, 197.2, 0, 1, 1, 0, 1, 0, 1, 0, 1, 0, 1
3034, '1', 113.3, -18.79, 27.8, -18.79, 1.03, 0, 0, 0, 1.0, 0, 0, 1, 1, 1, 113.3, 0, 1, 1, 0, 1, 0, 1, 0, 1, 0, 1
3039, '1', 112.5, -30.1, 44.52, -30.1, 1.04, 0, 0, 0, 1.0, 0, 0, 1, 1, 1, 112.5, 0, 1, 1, 0, 1, 0, 1, 0, 1, 0, 1
3043, '1', 0, 0.66, 0.66, -0.14, 1.0205231, 0, 0, 0, 1.0, 0, 0, 1, 0, 1, 1.3, 0.39, 1, 1, 0, 1, 0, 1, 0, 1, 0, 1
3044, '1', 0, -0.545, 45.5, -9.92, 1.0205231, 0, 0, 0, 1.0, 0, 0, 1, 0, 1, 89.4, 26.82, 1, 1, 0, 1, 0, 1, 0, 1, 0, 1
3045, '1', 0, 0, 227.52, -49.62, 1.0205231, 0, 0, 0, 1.0, 0, 0, 1, 0, 1, 447, 134.1, 1, 1, 0, 1, 0, 1, 0, 1, 0, 1
3048, '1', 97.8, -34.7, 51.33, -34.7, 1.0262951, 0, 0, 0, 1.0, 0, 0, 1, 1, 1, 97.8, 0, 1, 1, 0, 1, 0, 1, 0, 1, 0, 1
3055, '1', 206.3, -35.3, 52.22, -35.3, 1.04, 0, 0, 0, 1.0, 0, 0, 1, 1, 1, 206.3, 0, 1, 1, 0, 1, 0, 1, 0, 1, 0, 1
3056, '1', 206.3, -35.3, 52.22, -35.3, 1.04, 0, 0, 0, 1.0, 0, 0, 1, 1, 1, 206.3, 0, 1, 1, 0, 1, 0, 1, 0, 1, 0, 1
3057, '1', 206.3, -35.3, 52.22, -35.3, 1.04, 0, 0, 0, 1.0, 0, 0, 1, 1, 1, 206.3, 0, 1, 1, 0, 1, 0, 1, 0, 1, 0, 1
3060, '1', 49.4, -23.85, 35.28, -23.85, 1.04, 0, 0, 0, 1.0, 0, 0, 1, 1, 1, 49.4, 0, 1, 1, 0, 1, 0, 1, 0, 1, 0, 1
3061, '1', 6.4, -23.85, 35.28, -23.85, 1.04, 0, 0, 0, 1.0, 0, 0, 1, 1, 1, 6.4, 0, 1, 1, 0, 1, 0, 1, 0, 1, 0, 1
3062, '1', 49.4, -23.85, 35.28, -23.85, 1.04, 0, 0, 0, 1.0, 0, 0, 1, 1, 1, 49.4, 0, 1, 1, 0, 1, 0, 1, 0, 1, 0, 1
3063, '1', 49.4, -23.85, 35.28, -23.85, 1.04, 0, 0, 0, 1.0, 0, 0, 1, 1, 1, 49.4, 0, 1, 1, 0, 1, 0, 1, 0, 1, 0, 1
3065, '1', 73.1, -11.59, 17.15, -11.59, 1, 0, 0, 0, 1.0, 0, 0, 1, 1, 1, 73.1, 0, 1, 1, 0, 1, 0, 1, 0, 1, 0, 1
3068, '1', 55.9, -21.6, 31.95, -21.6, 1.0368062, 0, 0, 0, 1.0, 0, 0, 1, 1, 1, 55.9, 0, 1, 1, 0, 1, 0, 1, 0, 1, 0, 1
3071, '1', 69.4, -24.51, 36.25, -24.51, 1.0016113, 0, 0, 0, 1.0, 0, 0, 1, 1, 1, 69.4, 0, 1, 1, 0, 1, 0, 1, 0, 1, 0, 1
3074, '1', 64.8, -14.37, 21.26, -14.37, 1, 0, 0, 0, 1.0, 0, 0, 1, 1, 1, 64.8, 0, 1, 1, 0, 1, 0, 1, 0, 1, 0, 1
3081, '1', 55.6, -35.86, 53.04, -35.86, 1.04, 0, 0, 0, 1.0, 0, 0, 1, 1, 1, 55.6, 0, 1, 1, 0, 1, 0, 1, 0, 1, 0, 1
3084, '1', 202.8, -33.48, 49.52, -33.48, 1, 0, 0, 0, 1.0, 0, 0, 1, 1, 1, 202.8, 0, 1, 1, 0, 1, 0, 1, 0, 1, 0, 1
3086, '1', 48, -10.8, 15.97, -10.8, 1, 0, 0, 0, 1.0, 0, 0, 1, 1, 1, 48, 0, 1, 1, 0, 1, 0, 1, 0, 1, 0, 1
3087, '1', 29.367, -1.008, 15.97, -10.8, 1.0044601, 0, 0, 0, 1.0, 0, 0, 1, 0, 1, 48, 0, 1, 1, 0, 1, 0, 1, 0, 1, 0, 1
3092, '1', 190.2, -28.8, 42.6, -28.8, 1.04, 0, 0, 0, 1.0, 0, 0, 1, 1, 1, 190.2, 0, 1, 1, 0, 1, 0, 1, 0, 1, 0, 1
3095, '1', 105.8, -17.37, 25.69, -17.37, 1.04, 0, 0, 0, 1.0, 0, 0, 1, 1, 1, 105.8, 0, 1, 1, 0, 1, 0, 1, 0, 1, 0, 1
3098, '1', 116.6, -23.04, 34.08, -23.04, 1.04, 0, 0, 0, 1.0, 0, 0, 1, 1, 1, 116.6, 0, 1, 1, 0, 1, 0, 1, 0, 1, 0, 1
3105, '1', 3.476, -0.74, 17.071, -0.74, 1.0078114, 0, 0, 0, 1.0, 0, 0, 1, 1, 1, 3.476, 0, 1, 1, 0, 1, 0, 1, 0, 1, 0, 1
3106, '1', 12.723, -2.69, 62.477, -2.69, 1.003746, 0, 0, 0, 1.0, 0, 0, 1, 1, 1, 12.723, 0, 1, 1, 0, 1, 0, 1, 0, 1, 0, 1
3110, '1', 67.5, -12.1, 17.89, -12.1, 1.04, 0, 0, 0, 1.0, 0, 0, 1, 1, 1, 67.5, 0, 1, 1, 0, 1, 0, 1, 0, 1, 0, 1
3112, '1', 22.7, -10.77, 15.93, -10.77, 1, 0, 0, 0, 1.0, 0, 0, 1, 1, 1, 22.7, 0, 1, 1, 0, 1, 0, 1, 0, 1, 0, 1
3113, '1', 72.2, -10.77, 15.93, -10.77, 1, 0, 0, 0, 1.0, 0, 0, 1, 1, 1, 72.2, 0, 1, 1, 0, 1, 0, 1, 0, 1, 0, 1
3117, '1', 35, -9.07, 13.42, -9.07, 1, 0, 0, 0, 1.0, 0, 0, 1, 1, 1, 35, 0, 1, 1, 0, 1, 0, 1, 0, 1, 0, 1
3118, '1', 114.3, -17.28, 25.56, -17.28, 1, 0, 0, 0, 1.0, 0, 0, 1, 1, 1, 114.3, 0, 1, 1, 0, 1, 0, 1, 0, 1, 0, 1
3120, '1', 0, 0, 0, 0, 1.0063771, 0, 0, 0, 1.0, 0, 0, 1, 1, 1, 0, 0, 1, 1, 0, 1, 0, 1, 0, 1, 0, 1
3122, '1', 180.8, -28.37, 41.96, -28.37, 1, 0, 0, 0, 1.0, 0, 0, 1, 1, 1, 180.8, 0, 1, 1, 0, 1, 0, 1, 0, 1, 0, 1
3127, '1', 131.4, -19.44, 28.76, -19.44, 1.0109029, 0, 0, 0, 1.0, 0, 0, 1, 1, 1, 131.4, 0, 1, 1, 0, 1, 0, 1, 0, 1, 0, 1
3129, '1', 104.6, -18.22, 26.94, -18.22, 1.0090289, 0, 0, 0, 1.0, 0, 0, 1, 1, 1, 104.6, 0, 1, 1, 0, 1, 0, 1, 0, 1, 0, 1
3131, '1', 72, -16.42, 24.28, -16.42, 1.0168916, 0, 0, 0, 1.0, 0, 0, 1, 1, 1, 72, 0, 1, 1, 0, 1, 0, 1, 0, 1, 0, 1
3133, '1', 15.985, 25.269, 26.11, -5.69, 1.0293113, 0, 0, 0, 1.0, 0, 0, 1, 0, 1, 51.3, 15.39, 1, 1, 0, 1, 0, 1, 0, 1, 0, 1
3133, '2', 15.985, 25.269, 26.11, -5.69, 1.0293113, 0, 0, 0, 1.0, 0, 0, 1, 0, 1, 51.3, 15.39, 1, 1, 0, 1, 0, 1, 0, 1, 0, 1
3133, '3', 15.985, 25.269, 26.11, -5.69, 1.0293113, 0, 0, 0, 1.0, 0, 0, 1, 0, 1, 51.3, 15.39, 1, 1, 0, 1, 0, 1, 0, 1, 0, 1
3137, '1', 99.3, -14.57, 21.56, -14.57, 1.0193705, 0, 0, 0, 1.0, 0, 0, 1, 1, 1, 99.3, 0, 1, 1, 0, 1, 0, 1, 0, 1, 0, 1
3141, '1', 85.2, -13.18, 19.49, -13.18, 1.0122416, 0, 0, 0, 1.0, 0, 0, 1, 1, 1, 85.2, 0, 1, 1, 0, 1, 0, 1, 0, 1, 0, 1
4010, '1', 123.2, -29.03, 42.94, -29.03, 1.03, 0, 0, 0, 1.0, 0, 0, 1, 1, 1, 123.2, 0, 1, 1, 0, 1, 0, 1, 0, 1, 0, 1
4026, '1', 354.88855, -50.02, 191.06, -50.02, 1.03, 0, 0, 0, 1.0, 0, 0, 1, 1, 1, 410, 123, 1, 1, 0, 1, 0, 1, 0, 1, 0, 1
4030, '1', 364.46613, -75.93, 290.04, -75.93, 1.01, 0, 0, 0, 1.0, 0, 0, 1, 1, 1, 622.4, 186.72, 1, 1, 0, 1, 0, 1, 0, 1, 0, 1
4045, '1', 7.3, -1.54, 35.862, -1.54, 1.02, 0, 0, 0, 1.0, 0, 0, 1, 1, 1, 7.3, 0, 1, 1, 0, 1, 0, 1, 0, 1, 0, 1
4046, '1', 2.225, -0.47, 10.936, -0.47, 1.02, 0, 0, 0, 1.0, 0, 0, 1, 1, 1, 2.225, 0, 1, 1, 0, 1, 0, 1, 0, 1, 0, 1
4047, '1', 15.296, -3.23, 75.102, -3.23, 1.02, 0, 0, 0, 1.0, 0, 0, 1, 1, 1, 15.296, 0, 1, 1, 0, 1, 0, 1, 0, 1, 0, 1
4050, '1', 108.3, -28.8, 42.6, -28.8, 1, 0, 0, 0, 1.0, 0, 0, 1, 1, 1, 108.3, 0, 1, 1, 0, 1, 0, 1, 0, 1, 0, 1
4052, '1', 44.2, -4.91, 22.5, -4.91, 1.0213172, 0, 0, 0, 1.0, 0, 0, 1, 1, 1, 44.2, 13.26, 1, 1, 0, 1, 0, 1, 0, 1, 0, 1
4058, '1', 144, -15.98, 73.3, -15.98, 1.03, 0, 0, 0, 1.0, 0, 0, 1, 1, 1, 144, 43.2, 1, 1, 0, 1, 0, 1, 0, 1, 0, 1
4059, '1', 144, -15.98, 73.3, -15.98, 1.03, 0, 0, 0, 1.0, 0, 0, 1, 1, 1, 144, 43.2, 1, 1, 0, 1, 0, 1, 0, 1, 0, 1
4060, '1', 144, -15.98, 73.3, -15.98, 1.03, 0, 0, 0, 1.0, 0, 0, 1, 1, 1, 144, 43.2, 1, 1, 0, 1, 0, 1, 0, 1, 0, 1
4061, '1', 172.33, -19.13, 87.72, -19.13, 1.03, 0, 0, 0, 1.0, 0, 0, 1, 1, 1, 172.33, 51.7, 1, 1, 0, 1, 0, 1, 0, 1, 0, 1
4062, '1', 172.33, -19.13, 87.72, -19.13, 1.03, 0, 0, 0, 1.0, 0, 0, 1, 1, 1, 172.33, 51.7, 1, 1, 0, 1, 0, 1, 0, 1, 0, 1
4063, '1', 172.33, -19.13, 87.72, -19.13, 1.03, 0, 0, 0, 1.0, 0, 0, 1, 1, 1, 172.33, 51.7, 1, 1, 0, 1, 0, 1, 0, 1, 0, 1
4065, '1', 47, -5.22, 23.92, -5.22, 1.02, 0, 0, 0, 1.0, 0, 0, 1, 1, 1, 47, 14.1, 1, 1, 0, 1, 0, 1, 0, 1, 0, 1
4075, '1', 0, 25.07, 89.75, -19.57, 1.0065681, 0, 0, 0, 1.0, 0, 0, 1, 0, 1, 176.33, 52.9, 1, 1, 0, 1, 0, 1, 0, 1, 0, 1
4076, '1', 53.884245, -19.57, 89.75, -19.57, 1.03, 0, 0, 0, 1.0, 0, 0, 1, 1, 1, 176.33, 52.9, 1, 1, 0, 1, 0, 1, 0, 1, 0, 1
4077, '1', 53.884245, -19.57, 89.75, -19.57, 1.03, 0, 0, 0, 1.0, 0, 0, 1, 1, 1, 176.33, 52.9, 1, 1, 0, 1, 0, 1, 0, 1, 0, 1
4082, '1', 243.4, -27.02, 123.89, -27.02, 1.04, 0, 0, 0, 1.0, 0, 0, 1, 1, 1, 243.4, 73.02, 1, 1, 0, 1, 0, 1, 0, 1, 0, 1
4083, '1', 243.4, -27.02, 123.89, -27.02, 1.04, 0, 0, 0, 1.0, 0, 0, 1, 1, 1, 243.4, 73.02, 1, 1, 0, 1, 0, 1, 0, 1, 0, 1
4084, '1', 243.4, -27.02, 123.89, -27.02, 1.04, 0, 0, 0, 1.0, 0, 0, 1, 1, 1, 243.4, 73.02, 1, 1, 0, 1, 0, 1, 0, 1, 0, 1
4085, '1', 107.56481, -39.07, 179.17, -39.07, 1.04, 0, 0, 0, 1.0, 0, 0, 1, 1, 1, 352, 105.6, 1, 1, 0, 1, 0, 1, 0, 1, 0, 1
4090, '1', 1.399, 0.65, 0.65, -0.17, 1.0022143, 0, 0, 0, 1.0, 0, 0, 1, 0, 1, 1.4, 0.42, 1, 1, 0, 1, 0, 1, 0, 1, 0, 1
4091, '1', 23.5, -2.87, 10.95, -2.87, 1.01, 0, 0, 0, 1.0, 0, 0, 1, 1, 1, 23.5, 7.05, 1, 1, 0, 1, 0, 1, 0, 1, 0, 1
4092, '1', 7.595, 3.54, 3.54, -0.93, 1.0022143, 0, 0, 0, 1.0, 0, 0, 1, 0, 1, 7.6, 2.28, 1, 1, 0, 1, 0, 1, 0, 1, 0, 1
4093, '1', 28, -3.42, 13.05, -3.42, 1.01, 0, 0, 0, 1.0, 0, 0, 1, 1, 1, 28, 8.4, 1, 1, 0, 1, 0, 1, 0, 1, 0, 1
4094, '1', 28, -3.42, 13.05, -3.42, 1.01, 0, 0, 0, 1.0, 0, 0, 1, 1, 1, 28, 8.4, 1, 1, 0, 1, 0, 1, 0, 1, 0, 1
4095, '1', 28, -3.42, 13.05, -3.42, 1.01, 0, 0, 0, 1.0, 0, 0, 1, 1, 1, 28, 8.4, 1, 1, 0, 1, 0, 1, 0, 1, 0, 1
4096, '1', 27.983, 1.967, 13.05, -3.42, 1.0022143, 0, 0, 0, 1.0, 0, 0, 1, 0, 1, 28, 8.4, 1, 1, 0, 1, 0, 1, 0, 1, 0, 1
4097, '1', 28, -3.42, 13.05, -3.42, 1.01, 0, 0, 0, 1.0, 0, 0, 1, 1, 1, 28, 8.4, 1, 1, 0, 1, 0, 1, 0, 1, 0, 1
4098, '1', 27.983, 2.214, 13.05, -3.42, 1.0022143, 0, 0, 0, 1.0, 0, 0, 1, 0, 1, 28, 8.4, 1, 1, 0, 1, 0, 1, 0, 1, 0, 1
4105, '1', 99.6, -25.92, 38.34, -25.92, 1.01, 0, 0, 0, 1.0, 0, 0, 1, 1, 1, 99.6, 0, 1, 1, 0, 1, 0, 1, 0, 1, 0, 1
4115, '1', 40.275686, -14.63, 67.09, -14.63, 1.04, 0, 0, 0, 1.0, 0, 0, 1, 1, 1, 131.8, 39.54, 1, 1, 0, 1, 0, 1, 0, 1, 0, 1
4116, '1', 40.275686, -14.63, 67.09, -14.63, 1.04, 0, 0, 0, 1.0, 0, 0, 1, 1, 1, 131.8, 39.54, 1, 1, 0, 1, 0, 1, 0, 1, 0, 1
4133, '1', 0, -3.73, 17.1, -3.73, 1.015, 0, 0, 0, 1.0, 0, 0, 1, 0, 1, 33.6, 10.08, 1, 1, 0, 1, 0, 1, 0, 1, 0, 1
4134, '1', 10.26755, -3.73, 17.1, -3.73, 1.009644, 0, 0, 0, 1.0, 0, 0, 1, 1, 1, 33.6, 10.08, 1, 1, 0, 1, 0, 1, 0, 1, 0, 1
4135, '1', 10.26755, -3.73, 17.1, -3.73, 1.0100402, 0, 0, 0, 1.0, 0, 0, 1, 1, 1, 33.6, 10.08, 1, 1, 0, 1, 0, 1, 0, 1, 0, 1
4136, '1', 10.26755, -3.73, 17.1, -3.73, 1.0083361, 0, 0, 0, 1.0, 0, 0, 1, 1, 1, 33.6, 10.08, 1, 1, 0, 1, 0, 1, 0, 1, 0, 1
4137, '1', 0, -7.46, 34.2, -7.46, 1.015, 0, 0, 0, 1.0, 0, 0, 1, 0, 1, 67.2, 20.16, 1, 1, 0, 1, 0, 1, 0, 1, 0, 1
4138, '1', 0, -7.33, 33.59, -7.33, 1.015, 0, 0, 0, 1.0, 0, 0, 1, 0, 1, 66, 19.8, 1, 1, 0, 1, 0, 1, 0, 1, 0, 1
4142, '1', 105.9, -27.07, 40.04, -27.07, 1.0288513, 0, 0, 0, 1.0, 0, 0, 1, 1, 1, 105.9, 0, 1, 1, 0, 1, 0, 1, 0, 1, 0, 1
4153, '1', 137.5, -40.78, 60.32, -40.78, 1.024513, 0, 0, 0, 1.0, 0, 0, 1, 1, 1, 137.5, 0, 1, 1, 0, 1, 0, 1, 0, 1, 0, 1
4160, '1', 197.77, -21.95, 100.66, -21.95, 1.03, 0, 0, 0, 1.0, 0, 0, 1, 1, 1, 197.77, 59.33, 1, 1, 0, 1, 0, 1, 0, 1, 0, 1
4161, '1', 197.77, -21.95, 100.66, -21.95, 1.03, 0, 0, 0, 1.0, 0, 0, 1, 1, 1, 197.77, 59.33, 1, 1, 0, 1, 0, 1, 0, 1, 0, 1
4162, '1', 197.77, -21.95, 100.66, -21.95, 1.03, 0, 0, 0, 1.0, 0, 0, 1, 1, 1, 197.77, 59.33, 1, 1, 0, 1, 0, 1, 0, 1, 0, 1
4163, '1', 8.994, 4.58, 4.58, -1, 1.0135503, 0, 0, 0, 1.0, 0, 0, 1, 0, 1, 9, 2.7, 1, 1, 0, 1, 0, 1, 0, 1, 0, 1
4166, '1', 97.6, -28.94, 42.81, -28.94, 1.0020046, 0, 0, 0, 1.0, 0, 0, 1, 1, 1, 97.6, 0, 1, 1, 0, 1, 0, 1, 0, 1, 0, 1
4177, '1', 45.6, -21.6, 31.95, -21.6, 1.04, 0, 0, 0, 1.0, 0, 0, 1, 1, 1, 45.6, 0, 1, 1, 0, 1, 0, 1, 0, 1, 0, 1
4181, '1', 72.5, -28.81, 42.62, -28.81, 1.021903, 0, 0, 0, 1.0, 0, 0, 1, 1, 1, 72.5, 0, 1, 1, 0, 1, 0, 1, 0, 1, 0, 1
4183, '1', 94, -29.23, 43.24, -29.23, 1.0138447, 0, 0, 0, 1.0, 0, 0, 1, 1, 1, 94, 0, 1, 1, 0, 1, 0, 1, 0, 1, 0, 1
4192, '1', 75, -8.33, 38.17, -8.33, 1.02, 0, 0, 0, 1.0, 0, 0, 1, 1, 1, 75, 22.5, 1, 1, 0, 1, 0, 1, 0, 1, 0, 1
4192, '10', 183.77, -20.4, 93.54, -20.4, 1.02, 0, 0, 0, 1.0, 0, 0, 1, 1, 1, 183.77, 55.13, 1, 1, 0, 1, 0, 1, 0, 1, 0, 1
4192, '2', 23.985, 12.22, 12.22, -2.66, 1.02, 0, 0, 0, 1.0, 0, 0, 1, 0, 1, 24, 7.2, 1, 1, 0, 1, 0, 1, 0, 1, 0, 1
4192, '3', 61, -6.77, 31.05, -6.77, 1.02, 0, 0, 0, 1.0, 0, 0, 1, 1, 1, 61, 18.3, 1, 1, 0, 1, 0, 1, 0, 1, 0, 1
4192, '4', 10.4, -1.15, 5.29, -1.15, 1.02, 0, 0, 0, 1.0, 0, 0, 1, 1, 1, 10.4, 3.12, 1, 1, 0, 1, 0, 1, 0, 1, 0, 1
4192, '5', 231.11035, -29.64, 135.9, -29.64, 1.02, 0, 0, 0, 1.0, 0, 0, 1, 1, 1, 267, 80.1, 1, 1, 0, 1, 0, 1, 0, 1, 0, 1
4192, '6', 231.11035, -29.64, 135.9, -29.64, 1.02, 0, 0, 0, 1.0, 0, 0, 1, 1, 1, 267, 80.1, 1, 1, 0, 1, 0, 1, 0, 1, 0, 1
4192, '7', 231.11035, -29.64, 135.9, -29.64, 1.02, 0, 0, 0, 1.0, 0, 0, 1, 1, 1, 267, 80.1, 1, 1, 0, 1, 0, 1, 0, 1, 0, 1
4192, '8', 183.77, -20.4, 93.54, -20.4, 1.02, 0, 0, 0, 1.0, 0, 0, 1, 1, 1, 183.77, 55.13, 1, 1, 0, 1, 0, 1, 0, 1, 0, 1
4192, '9', 183.77, -20.4, 93.54, -20.4, 1.02, 0, 0, 0, 1.0, 0, 0, 1, 1, 1, 183.77, 55.13, 1, 1, 0, 1, 0, 1, 0, 1, 0, 1
4194, '1', 96.3, -29.03, 42.94, -29.03, 0.99925421, 0, 0, 0, 1.0, 0, 0, 1, 1, 1, 96.3, 0, 1, 1, 0, 1, 0, 1, 0, 1, 0, 1
4195, '1', 7.3, -13.25, 19.6, -13.25, 1.0191164, 0, 0, 0, 1.0, 0, 0, 1, 1, 1, 7.3, 0, 1, 1, 0, 1, 0, 1, 0, 1, 0, 1
5020, '1', 74.5, -17.28, 25.56, -17.28, 1.0075314, 0, 0, 0, 1.0, 0, 0, 1, 1, 1, 74.5, 0, 1, 1, 0, 1, 0, 1, 0, 1, 0, 1
5023, '1', 4.797, 2.44, 2.44, -0.53, 1.0063181, 0, 0, 0, 1.0, 0, 0, 1, 0, 1, 4.8, 1.44, 1, 1, 0, 1, 0, 1, 0, 1, 0, 1
5035, '1', 1.262, 2.14, 2.14, -0.47, 1.0137838, 0, 0, 0, 1.0, 0, 0, 1, 0, 1, 4.2, 1.26, 1, 1, 0, 1, 0, 1, 0, 1, 0, 1
5036, '1', 1.923, 3.26, 3.26, -0.71, 1.0137838, 0, 0, 0, 1.0, 0, 0, 1, 0, 1, 6.4, 1.92, 1, 1, 0, 1, 0, 1, 0, 1, 0, 1
5037, '1', 308.47, -34.24, 157.01, -34.24, 1.02, 0, 0, 0, 1.0, 0, 0, 1, 1, 1, 308.47, 92.54, 1, 1, 0, 1, 0, 1, 0, 1, 0, 1
5038, '1', 308.47, -34.24, 157.01, -34.24, 1.02, 0, 0, 0, 1.0, 0, 0, 1, 1, 1, 308.47, 92.54, 1, 1, 0, 1, 0, 1, 0, 1, 0, 1
5039, '1', 308.47, -34.24, 157.01, -34.24, 1.02, 0, 0, 0, 1.0, 0, 0, 1, 1, 1, 308.47, 92.54, 1, 1, 0, 1, 0, 1, 0, 1, 0, 1
5040, '1', 308.47, -34.24, 157.01, -34.24, 1.02, 0, 0, 0, 1.0, 0, 0, 1, 1, 1, 308.47, 92.54, 1, 1, 0, 1, 0, 1, 0, 1, 0, 1
5041, '1', 308.47, -34.24, 157.01, -34.24, 1.02, 0, 0, 0, 1.0, 0, 0, 1, 1, 1, 308.47, 92.54, 1, 1, 0, 1, 0, 1, 0, 1, 0, 1
5042, '1', 308.47, -34.24, 157.01, -34.24, 1.02, 0, 0, 0, 1.0, 0, 0, 1, 1, 1, 308.47, 92.54, 1, 1, 0, 1, 0, 1, 0, 1, 0, 1
5051, '1', 84.7, -9.4, 43.11, -9.4, 1.0179347, 0, 0, 0, 1.0, 0, 0, 1, 1, 1, 84.7, 25.41, 1, 1, 0, 1, 0, 1, 0, 1, 0, 1
5057, '1', 317.152, -35.23, 161.53, -35.23, 1.0103503, 0, 0, 0, 1.0, 0, 0, 1, 0, 1, 317.35, 95.2, 1, 1, 0, 1, 0, 1, 0, 1, 0, 1
5058, '1', 317.35, -35.23, 161.53, -35.23, 1.0029273, 0, 0, 0, 1.0, 0, 0, 1, 1, 1, 317.35, 95.2, 1, 1, 0, 1, 0, 1, 0, 1, 0, 1
5065, '1', 10.6, -1.18, 5.4, -1.18, 1.0149012, 0, 0, 0, 1.0, 0, 0, 1, 1, 1, 10.6, 3.18, 1, 1, 0, 1, 0, 1, 0, 1, 0, 1
5066, '1', 1.799, 0.92, 0.92, -0.2, 1.0139665, 0, 0, 0, 1.0, 0, 0, 1, 0, 1, 1.8, 0.54, 1, 1, 0, 1, 0, 1, 0, 1, 0, 1
5067, '1', 195.28435, -48.65, 223.08, -48.65, 1.03, 0, 0, 0, 1.0, 0, 0, 1, 1, 1, 438.27, 131.48, 1, 1, 0, 1, 0, 1, 0, 1, 0, 1
5068, '1', 195.28435, -48.65, 223.08, -48.65, 1.03, 0, 0, 0, 1.0, 0, 0, 1, 1, 1, 438.27, 131.48, 1, 1, 0, 1, 0, 1, 0, 1, 0, 1
5069, '1', 195.28435, -48.65, 223.08, -48.65, 1.03, 0, 0, 0, 1.0, 0, 0, 1, 1, 1, 438.27, 131.48, 1, 1, 0, 1, 0, 1, 0, 1, 0, 1
5089, '1', 122.397, 7.186, 47.569, -2.05, 0.99858486, 0, 0, 0, 1.0, 0, 0, 1, 0, 1, 123.9, 0, 1, 1, 0, 1, 0, 1, 0, 1, 0, 1
...
0 / END OF GENERATOR DATA, BEGIN BRANCH DATA
1001, 1064, '1', 0.00524, 0.0358, 0.00609, 221, 221, 221, 0, 0, 0, 0, 1, 1, 0, 1, 1, 0, 1, 0, 1, 0, 1
1001, 1064, '2', 0.00524, 0.0358, 0.00609, 221, 221, 221, 0, 0, 0, 0, 1, 1, 0, 1, 1, 0, 1, 0, 1, 0, 1
1001, 1071, '1', 0.00435, 0.02808, 0.00536, 221, 221, 221, 0, 0, 0, 0, 1, 1, 0, 1, 1, 0, 1, 0, 1, 0, 1
1001, 1071, '2', 0.00435, 0.02808, 0.00536, 221, 221, 221, 0, 0, 0, 0, 1, 1, 0, 1, 1, 0, 1, 0, 1, 0, 1
1002, 1007, '1', 0.07776, 0.46693, 0.06336, 98, 98, 98, 0, 0, 0, 0, 1, 1, 0, 1, 1, 0, 1, 0, 1, 0, 1
1010, 1002, '1', 0.05552, 0.1357, 0.01777, 98, 98, 98, 0, 0, 0, 0, 1, 1, 0, 1, 1, 0, 1, 0, 1, 0, 1
1022, 1003, '1', 0.00485, 0.02012, 0.00341, 221, 221, 221, 0, 0, 0, 0, 1, 1, 0, 1, 1, 0, 1, 0, 1, 0, 1
1055, 1003, '1', 0.01574, 0.03782, 0.00513, 98, 98, 98, 0, 0, 0, 0, 1, 1, 0, 1, 1, 0, 1, 0, 1, 0, 1
1004, 3133, '1', 0.0042, 0.03, 0.055, 523, 523, 523, 0, 0, 0, 0, 1, 1, 0, 1, 1, 0, 1, 0, 1, 0, 1
1025, 1005, '1', 0.01842, 0.0821, 0.01204, 149, 149, 149, 0, 0, 0, 0, 1, 1, 0, 1, 1, 0, 1, 0, 1, 0, 1
1005, 1061, '1', 0.00599, 0.02484, 0.00422, 221, 221, 221, 0, 0, 0, 0, 1, 1, 0, 1, 1, 0, 1, 0, 1, 0, 1
1067, 1005, '1', 0.01711, 0.04181, 0.00548, 98, 98, 98, 0, 0, 0, 0, 1, 1, 0, 1, 1, 0, 1, 0, 1, 0, 1
1007, 1015, '1', 0.06224, 0.37375, 0.05072, 98, 98, 98, 0, 0, 0, 0, 1, 1, 0, 1, 1, 0, 1, 0, 1, 0, 1
1031, 1007, '1', 0.04803, 0.27434, 0.04123, 98, 98, 98, 0, 0, 0, 0, 1, 1, 0, 1, 1, 0, 1, 0, 1, 0, 1
1008, 1032, '1', 0.04501, 0.11002, 0.01441, 98, 98, 98, 0, 0, 0, 0, 1, 1, 0, 1, 1, 0, 1, 0, 1, 0, 1
1008, 1069, '1', 0.0083, 0.03628, 0.00553, 149, 149, 149, 0, 0, 0, 0, 1, 1, 0, 1, 1, 0, 1, 0, 1, 0, 1
1010, 1015, '1', 0.04703, 0.28243, 0.03833, 98, 98, 98, 0, 0, 0, 0, 1, 1, 0, 1, 1, 0, 1, 0, 1, 0, 1
1010, 1030, '1', 0.0616, 0.3699, 0.0502, 98, 98, 98, 0, 0, 0, 0, 1, 1, 0, 1, 1, 0, 1, 0, 1, 0, 1
1012, 1087, '1', 0.04934, 0.20469, 0.03473, 149, 149, 149, 0, 0, 0, 0, 1, 1, 0, 1, 1, 0, 1, 0, 1, 0, 1
3051, 1012, '1', 0.0571, 0.24977, 0.03804, 149, 149, 149, 0, 0, 0, 0, 1, 1, 0, 1, 1, 0, 1, 0, 1, 0, 1
1013, 1031, '1', 0.04509, 0.27078, 0.03675, 98, 98, 98, 0, 0, 0, 0, 1, 1, 0, 1, 1, 0, 1, 0, 1, 0, 1
1047, 1013, '1', 0.00947, 0.06117, 0.01167, 221, 221, 221, 0, 0, 0, 0, 1, 1, 0, 1, 1, 0, 1, 0, 1, 0, 1
1086, 1013, '1', 0.079, 0.19311, 0.02529, 98, 98, 98, 0, 0, 0, 0, 1, 1, 0, 1, 1, 0, 1, 0, 1, 0, 1
1014, 1047, '1', 0.03566, 0.14794, 0.0251, 149, 149, 149, 0, 0, 0, 0, 1, 1, 0, 1, 1, 0, 1, 0, 1, 0, 1
1014, 1083, '1', 0.04105, 0.18293, 0.02682, 149, 149, 149, 0, 0, 0, 0, 1, 1, 0, 1, 1, 0, 1, 0, 1, 0, 1
1016, 1034, '1', 0.01828, 0.10976, 0.01489, 98, 98, 98, 0, 0, 0, 0, 1, 1, 0, 1, 1, 0, 1, 0, 1, 0, 1
1068, 1016, '1', 0.02773, 0.15837, 0.0238, 98, 98, 98, 0, 0, 0, 0, 1, 1, 0, 1, 1, 0, 1, 0, 1, 0, 1
1018, 1017, '1', 0.03227, 0.07887, 0.01033, 98, 98, 98, 0, 0, 0, 0, 1, 1, 0, 1, 1, 0, 1, 0, 1, 0, 1
1017, 1029, '1', 0.03244, 0.14188, 0.02161, 149, 149, 149, 0, 0, 0, 0, 1, 1, 0, 1, 1, 0, 1, 0, 1, 0, 1
1037, 1017, '1', 0.00752, 0.03352, 0.00491, 221, 221, 221, 0, 0, 0, 0, 1, 1, 0, 1, 1, 0, 1, 0, 1, 0, 1
1047, 1017, '1', 0.036, 0.156, 0.024, 150, 150, 150, 0, 0, 0, 0, 1, 1, 0, 1, 1, 0, 1, 0, 1, 0, 1
1024, 1018, '1', 0.01094, 0.06572, 0.00892, 98, 98, 98, 0, 0, 0, 0, 1, 1, 0, 1, 1, 0, 1, 0, 1, 0, 1
1019, 1040, '1', 0.04978, 0.20651, 0.03504, 149, 149, 149, 0, 0, 0, 0, 1, 1, 0, 1, 1, 0, 1, 0, 1, 0, 1
1019, 1045, '1', 0.01522, 0.0372, 0.00487, 221, 221, 221, 0, 0, 0, 0, 1, 1, 0, 1, 1, 0, 1, 0, 1, 0, 1
1019, 1071, '1', 0.0044, 0.028, 0.0054, 225, 225, 225, 0, 0, 0, 0, 1, 1, 0, 1, 1, 0, 1, 0, 1, 0, 1
1071, 1019, '2', 0.0044, 0.028, 0.0054, 225, 225, 225, 0, 0, 0, 0, 1, 1, 0, 1, 1, 0, 1, 0, 1, 0, 1
1019, 1084, '1', 0.03, 0.16, 0.025, 220, 220, 220, 0, 0, 0, 0, 1, 1, 0, 1, 1, 0, 1, 0, 1, 0, 1
1025, 1020, '1', 0.00828, 0.03434, 0.00583, 149, 149, 149, 0, 0, 0, 0, 1, 1, 0, 1, 1, 0, 1, 0, 1, 0, 1
1084, 1020, '1', 0.01056, 0.06337, 0.0086, 221, 221, 221, 0, 0, 0, 0, 1, 1, 0, 1, 1, 0, 1, 0, 1, 0, 1
1020, 3059, '1', 0.0189, 0.06, 0.006, 300, 300, 300, 0, 0, 0, 0, 1, 1, 0, 1, 1, 0, 1, 0, 1, 0, 1
1020, 3130, '1', 0.00996, 0.06938, 0.01134, 221, 221, 221, 0, 0, 0, 0, 1, 1, 0, 1, 1, 0, 1, 0, 1, 0, 1
1022, 1028, '1', 0.01433, 0.09253, 0.01765, 221, 221, 221, 0, 0, 0, 0, 1, 1, 0, 1, 1, 0, 1, 0, 1, 0, 1
1022, 1028, '2', 0.01433, 0.09253, 0.01765, 221, 221, 221, 0, 0, 0, 0, 1, 1, 0, 1, 1, 0, 1, 0, 1, 0, 1
1024, 1090, '1', 0.01414, 0.06303, 0.00924, 149, 149, 149, 0, 0, 0, 0, 1, 1, 0, 1, 1, 0, 1, 0, 1, 0, 1
1027, 1045, '1', 0.02505, 0.10957, 0.01669, 221, 221, 221, 0, 0, 0, 0, 1, 1, 0, 1, 1, 0, 1, 0, 1, 0, 1
1056, 1027, '1', 0.03121, 0.0763, 0.00999, 250, 250, 250, 0, 0, 0, 0, 1, 1, 0, 1, 1, 0, 1, 0, 1, 0, 1
1028, 3109, '1', 0.00428, 0.01875, 0.00286, 250, 250, 250, 0, 0, 0, 0, 1, 1, 0, 1, 1, 0, 1, 0, 1, 0, 1
1029, 1056, '1', 0.02054, 0.11733, 0.01763, 221, 221, 221, 0, 0, 0, 0, 1, 1, 0, 1, 1, 0, 1, 0, 1, 0, 1
1030, 1038, '1', 0.07404, 0.42285, 0.06354, 98, 98, 98, 0, 0, 0, 0, 1, 1, 0, 1, 1, 0, 1, 0, 1, 0, 1
1083, 1030, '1', 0.06537, 0.37334, 0.0561, 98, 98, 98, 0, 0, 0, 0, 1, 1, 0, 1, 1, 0, 1, 0, 1, 0, 1
1032, 1036, '1', 0.01956, 0.11746, 0.01594, 98, 98, 98, 0, 0, 0, 0, 1, 1, 0, 1, 1, 0, 1, 0, 1, 0, 1
1038, 1032, '1', 0.045, 0.11, 0.015, 155, 155, 155, 0, 0, 0, 0, 1, 1, 0, 1, 1, 0, 1, 0, 1, 0, 1
1033, 1081, '1', 0.003, 0.031, 0.059, 548, 548, 548, 0, 0, 0, 0, 1, 1, 0, 1, 1, 0, 1, 0, 1, 0, 1
1033, 3050, '1', 0.0139, 0.136, 0.262, 647, 647, 647, 0, 0, 0, 0, 1, 1, 0, 1, 1, 0, 1, 0, 1, 0, 1
1067, 1034, '1', 0.00795, 0.04771, 0.00647, 98, 98, 98, 0, 0, 0, 0, 1, 1, 0, 1, 1, 0, 1, 0, 1, 0, 1
1088, 1036, '1', 0.02065, 0.11793, 0.01772, 98, 98, 98, 0, 0, 0, 0, 1, 1, 0, 1, 1, 0, 1, 0, 1, 0, 1
1037, 1071, '1', 0.00669, 0.04319, 0.00824, 300, 300, 300, 0, 0, 0, 0, 1, 1, 0, 1, 1, 0, 1, 0, 1, 0, 1
1082, 1038, '1', 0.01115, 0.04969, 0.00729, 149, 149, 149, 0, 0, 0, 0, 1, 1, 0, 1, 1, 0, 1, 0, 1, 0, 1
1083, 1038, '1', 0.01, 0.05, 0.007, 221, 221, 221, 0, 0, 0, 0, 1, 1, 0, 1, 1, 0, 1, 0, 1, 0, 1
1040, 1090, '1', 0.02991, 0.13329, 0.01955, 149, 149, 149, 0, 0, 0, 0, 1, 1, 0, 1, 1, 0, 1, 0, 1, 0, 1
1065, 1041, '1', 0.00386, 0.02203, 0.00331, 98, 98, 98, 0, 0, 0, 0, 1, 1, 0, 1, 1, 0, 1, 0, 1, 0, 1
1041, 1067, '1', 0.00393, 0.01722, 0.00262, 149, 149, 149, 0, 0, 0, 0, 1, 1, 0, 1, 1, 0, 1, 0, 1, 0, 1
1044, 3019, '1', 0.03857, 0.17192, 0.02521, 149, 149, 149, 0, 0, 0, 0, 1, 1, 0, 1, 1, 0, 1, 0, 1, 0, 1
3130, 1044, '1', 0.02731, 0.19029, 0.03111, 221, 221, 221, 0, 0, 0, 0, 1, 1, 0, 1, 1, 0, 1, 0, 1, 0, 1
1045, 1064, '1', 0.00545, 0.03794, 0.0062, 221, 221, 221, 0, 0, 0, 0, 1, 1, 0, 1, 1, 0, 1, 0, 1, 0, 1
1087, 1046, '1', 0.03262, 0.14269, 0.02173, 149, 149, 149, 0, 0, 0, 0, 1, 1, 0, 1, 1, 0, 1, 0, 1, 0, 1
1046, 3009, '1', 0.05654, 0.23454, 0.0398, 149, 149, 149, 0, 0, 0, 0, 1, 1, 0, 1, 1, 0, 1, 0, 1, 0, 1
1047, 1085, '1', 0.00947, 0.06117, 0.01167, 221, 221, 221, 0, 0, 0, 0, 1, 1, 0, 1, 1, 0, 1, 0, 1, 0, 1
1053, 1081, '1', 0.003, 0.03, 0.06, 548, 548, 548, 0, 0, 0, 0, 1, 1, 0, 1, 1, 0, 1, 0, 1, 0, 1
1054, 1056, '1', 0.02202, 0.09633, 0.01467, 149, 149, 149, 0, 0, 0, 0, 1, 1, 0, 1, 1, 0, 1, 0, 1, 0, 1
1089, 1054, '1', 0.08737, 0.21357, 0.02796, 98, 98, 98, 0, 0, 0, 0, 1, 1, 0, 1, 1, 0, 1, 0, 1, 0, 1
1055, 1089, '1', 0.04982, 0.12179, 0.01595, 98, 98, 98, 0, 0, 0, 0, 1, 1, 0, 1, 1, 0, 1, 0, 1, 0, 1
1056, 1061, '1', 0.02267, 0.12946, 0.01945, 150, 150, 150, 0, 0, 0, 0, 1, 1, 0, 1, 1, 0, 1, 0, 1, 0, 1
1056, 1065, '1', 0.02269, 0.12962, 0.01948, 250, 250, 250, 0, 0, 0, 0, 1, 1, 0, 1, 1, 0, 1, 0, 1, 0, 1
1069, 1058, '1', 0.0074, 0.05155, 0.00843, 221, 221, 221, 0, 0, 0, 0, 1, 1, 0, 1, 1, 0, 1, 0, 1, 0, 1
1069, 1058, '2', 0.0074, 0.05155, 0.00843, 221, 221, 221, 0, 0, 0, 0, 1, 1, 0, 1, 1, 0, 1, 0, 1, 0, 1
1058, 1087, '1', 0.01573, 0.10956, 0.01791, 221, 221, 221, 0, 0, 0, 0, 1, 1, 0, 1, 1, 0, 1, 0, 1, 0, 1
1058, 1087, '2', 0.01573, 0.10956, 0.01791, 221, 221, 221, 0, 0, 0, 0, 1, 1, 0, 1, 1, 0, 1, 0, 1, 0, 1
1061, 3042, '1', 0.054, 0.18, 0.028, 221, 221, 221, 0, 0, 0, 0, 1, 1, 0, 1, 1, 0, 1, 0, 1, 0, 1
1088, 1068, '1', 0.02962, 0.16921, 0.02543, 98, 98, 98, 0, 0, 0, 0, 1, 1, 0, 1, 1, 0, 1, 0, 1, 0, 1
1082, 1069, '1', 0.02137, 0.0952, 0.01396, 149, 149, 149, 0, 0, 0, 0, 1, 1, 0, 1, 1, 0, 1, 0, 1, 0, 1
3048, 1079, '1', 0.0013, 0.015, 1.02, 2300, 2300, 2300, 0, 0, 0, 0, 1, 1, 0, 1, 1, 0, 1, 0, 1, 0, 1
3048, 1079, '2', 0.0013, 0.015, 1.02, 2300, 2300, 2300, 0, 0, 0, 0, 1, 1, 0, 1, 1, 0, 1, 0, 1, 0, 1
1081, 3058, '1', 0.0091, 0.089, 0.171, 548, 548, 548, 0, 0, 0, 0, 1, 1, 0, 1, 1, 0, 1, 0, 1, 0, 1
1084, 3130, '1', 0.02049, 0.09131, 0.01339, 221, 221, 221, 0, 0, 0, 0, 1, 1, 0, 1, 1, 0, 1, 0, 1, 0, 1
1085, 1086, '1', 0.03392, 0.14838, 0.0226, 149, 149, 149, 0, 0, 0, 0, 1, 1, 0, 1, 1, 0, 1, 0, 1, 0, 1
1090, 1085, '1', 0.02018, 0.13786, 0.02346, 221, 221, 221, 0, 0, 0, 0, 1, 1, 0, 1, 1, 0, 1, 0, 1, 0, 1
2029, 1091, '1', 0.0389, 0.17144, 0.0798, 187, 187, 187, 0, 0, 0, 0, 1, 1, 0, 1, 1, 0, 1, 0, 1, 0, 1
1091, 2048, '1', 0.02193, 0.09667, 0.045, 187, 187, 187, 0, 0, 0, 0, 1, 1, 0, 1, 1, 0, 1, 0, 1, 0, 1
2098, 1091, '1', 0.00554, 0.02443, 0.01137, 187, 187, 187, 0, 0, 0, 0, 1, 1, 0, 1, 1, 0, 1, 0, 1, 0, 1
2022, 2001, '1', 0.00839, 0.03697, 0.01721, 187, 187, 187, 0, 0, 0, 0, 1, 1, 0, 1, 1, 0, 1, 0, 1, 0, 1
2027, 2001, '1', 0.00955, 0.04062, 0.02032, 187, 187, 187, 0, 0, 0, 0, 1, 1, 0, 1, 1, 0, 1, 0, 1, 0, 1
2021, 2002, '1', 0.00097, 0.01175, 0.78032, 2295, 2295, 2295, 0, 0, 0, 0, 1, 1, 0, 1, 1, 0, 1, 0, 1, 0, 1
2002, 2101, '1', 0.00031, 0.0037, 0.24573, 2020, 2020, 2020, 0, 0, 0, 0, 1, 1, 0, 1, 1, 0, 1, 0, 1, 0, 1
2038, 2003, '1', 0.00353, 0.02067, 0.01032, 251, 251, 251, 0, 0, 0, 0, 1, 1, 0, 1, 1, 0, 1, 0, 1, 0, 1
2003, 2047, '1', 0.0013, 0.0099, 0.0052, 310, 310, 310, 0, 0, 0, 0, 1, 1, 0, 1, 1, 0, 1, 0, 1, 0, 1
2007, 2114, '1', 0.00888, 0.05207, 0.026, 251, 251, 251, 0, 0, 0, 0, 1, 1, 0, 1, 1, 0, 1, 0, 1, 0, 1
2007, 2122, '1', 0.00861, 0.03661, 0.01831, 187, 187, 187, 0, 0, 0, 0, 1, 1, 0, 1, 1, 0, 1, 0, 1, 0, 1
2014, 2008, '1', 0.02253, 0.09931, 0.04623, 187, 187, 187, 0, 0, 0, 0, 1, 1, 0, 1, 1, 0, 1, 0, 1, 0, 1
2008, 2052, '1', 0.01877, 0.08271, 0.0385, 187, 187, 187, 0, 0, 0, 0, 1, 1, 0, 1, 1, 0, 1, 0, 1, 0, 1
2009, 2049, '1', 0.01224, 0.07176, 0.03583, 251, 251, 251, 0, 0, 0, 0, 1, 1, 0, 1, 1, 0, 1, 0, 1, 0, 1
2009, 2082, '1', 0.00735, 0.03126, 0.01563, 187, 187, 187, 0, 0, 0, 0, 1, 1, 0, 1, 1, 0, 1, 0, 1, 0, 1
2109, 2009, '1', 0.00725, 0.03084, 0.01542, 250, 250, 250, 0, 0, 0, 0, 1, 1, 0, 1, 1, 0, 1, 0, 1, 0, 1
2061, 2010, '1', 0.02439, 0.10748, 0.05003, 187, 187, 187, 0, 0, 0, 0, 1, 1, 0, 1, 1, 0, 1, 0, 1, 0, 1
2010, 2079, '1', 0.02061, 0.09083, 0.04228, 187, 187, 187, 0, 0, 0, 0, 1, 1, 0, 1, 1, 0, 1, 0, 1, 0, 1
2010, 2091, '1', 0.02461, 0.10467, 0.05235, 187, 187, 187, 0, 0, 0, 0, 1, 1, 0, 1, 1, 0, 1, 0, 1, 0, 1
2127, 2011, '1', 0.00108, 0.01307, 0.86827, 2020, 2020, 2020, 0, 0, 0, 0, 1, 1, 0, 1, 1, 0, 1, 0, 1, 0, 1
2012, 2041, '1', 0.01245, 0.05297, 0.02649, 187, 187, 187, 0, 0, 0, 0, 1, 1, 0, 1, 1, 0, 1, 0, 1, 0, 1
2012, 2052, '1', 0.02008, 0.08851, 0.0412, 187, 187, 187, 0, 0, 0, 0, 1, 1, 0, 1, 1, 0, 1, 0, 1, 0, 1
2093, 2012, '1', 0.01029, 0.04536, 0.02111, 187, 187, 187, 0, 0, 0, 0, 1, 1, 0, 1, 1, 0, 1, 0, 1, 0, 1
2012, 2123, '1', 0.00995, 0.0423, 0.02115, 251, 251, 251, 0, 0, 0, 0, 1, 1, 0, 1, 1, 0, 1, 0, 1, 0, 1
2014, 2029, '1', 0.01859, 0.07908, 0.03955, 187, 187, 187, 0, 0, 0, 0, 1, 1, 0, 1, 1, 0, 1, 0, 1, 0, 1
...